xflr5 v6.47

Plane Name
T1-10.0 m/s-Panel-Inviscid
QInf  =   10.000000 m/s
Alpha =   10.000000
Beta  =    0.000°
Phi   =    0.000°
Ctrl  =    0.000
CL    =    0.959026
Cy    =   -0.000000
Cd    =    0.037226     ICd   =    0.037226     PCd   =    0.000000
Cl   = -2.31966e-16
Cm   =    -1.12661
ICn   =    0.000000     PCn   =    0.000000 
XCP   =    9.040424     YCP   =    0.000000     ZCP   =    0.707347  
XNP   =    0.000000
Bending = 114910.447608

Main Wing
  y-span        Chord      Ai         Cl        PCd          ICd        CmGeom    CmAirf@chord/4    XTrtop    XTrBot      XCP       BM
  -26.7442     3.1433    -7.494    0.325356    0.000000    0.042794   -2.058570    0.016156     0.0000    0.0000    0.2064    0.0000
  -26.5616     3.1963    -5.488    0.537324    0.000000    0.051612   -2.938800    0.000811     0.0000    0.0000    0.2441    1.0723
  -26.1974     3.3021    -4.689    0.729659    0.000000    0.059837   -3.613559    0.007003     0.0000    0.0000    0.2352   13.9523
  -25.6543     3.4598    -4.006    0.878261    0.000000    0.061485   -4.079878   -0.003891     0.0000    0.0000    0.2493   70.4542
  -24.9360     3.6684    -3.385    0.981135    0.000000    0.058003   -4.222669   -0.016756     0.0000    0.0000    0.2620   231.6812
  -24.0473     3.9265    -2.862    1.044571    0.000000    0.052186   -4.095393   -0.026782     0.0000    0.0000    0.2706   592.6063
  -22.9944     4.2323    -2.469    1.078054    0.000000    0.046446   -3.792886   -0.033367     0.0000    0.0000    0.2759   1283.6503
  -21.7844     4.5837    -2.208    1.090511    0.000000    0.041994   -3.399534   -0.037330     0.0000    0.0000    0.2792   2470.2384
  -20.4256     4.9783    -2.057    1.088671    0.000000    0.039044   -2.974631   -0.039592     0.0000    0.0000    0.2813   4350.8429
  -18.9272     5.4134    -1.989    1.077053    0.000000    0.037345   -2.554588   -0.040813     0.0000    0.0000    0.2829   7153.3905
  -17.2996     5.8861    -1.981    1.058523    0.000000    0.036544   -2.159626   -0.041411     0.0000    0.0000    0.2841   11129.6435
  -15.5537     6.3931    -2.014    1.034826    0.000000    0.036316   -1.799616   -0.041646     0.0000    0.0000    0.2853   16547.2499
  -13.7017     6.9309    -2.074    1.006964    0.000000    0.036385   -1.478184   -0.041685     0.0000    0.0000    0.2864   23679.3390
  -11.7560     7.4960    -2.150    0.975449    0.000000    0.036523   -1.195432   -0.041682     0.0000    0.0000    0.2878   32791.7766
   -9.7301     8.0843    -2.230    0.940448    0.000000    0.036505   -0.949695   -0.041816     0.0000    0.0000    0.2896   44128.4360
   -7.6376     8.6920    -2.300    0.901862    0.000000    0.036073   -0.738562   -0.042413     0.0000    0.0000    0.2923   57895.0518
   -5.4930     9.3148    -2.338    0.859407    0.000000    0.034873   -0.559792   -0.044168     0.0000    0.0000    0.2968   74242.4166
   -3.3109     9.9485    -2.301    0.812582    0.000000    0.032296   -0.412165   -0.048669     0.0000    0.0000    0.3056   93249.9290
   -1.1062    10.5888    -2.099    0.758532    0.000000    0.026705   -0.297191   -0.060725     0.0000    0.0000    0.3268   114910.4476
    1.1062    10.5888    -2.099    0.758532    0.000000    0.026705   -0.297191   -0.060725     0.0000    0.0000    0.3268   114910.4476
    3.3109     9.9485    -2.301    0.812582    0.000000    0.032296   -0.412165   -0.048669     0.0000    0.0000    0.3056   93249.9290
    5.4930     9.3148    -2.338    0.859407    0.000000    0.034873   -0.559792   -0.044168     0.0000    0.0000    0.2968   74242.4166
    7.6376     8.6920    -2.300    0.901862    0.000000    0.036073   -0.738562   -0.042413     0.0000    0.0000    0.2923   57895.0518
    9.7301     8.0843    -2.230    0.940448    0.000000    0.036505   -0.949695   -0.041816     0.0000    0.0000    0.2896   44128.4360
   11.7560     7.4960    -2.150    0.975449    0.000000    0.036523   -1.195432   -0.041682     0.0000    0.0000    0.2878   32791.7766
   13.7017     6.9309    -2.074    1.006964    0.000000    0.036385   -1.478184   -0.041685     0.0000    0.0000    0.2864   23679.3390
   15.5537     6.3931    -2.014    1.034826    0.000000    0.036316   -1.799616   -0.041646     0.0000    0.0000    0.2853   16547.2499
   17.2996     5.8861    -1.981    1.058523    0.000000    0.036544   -2.159626   -0.041411     0.0000    0.0000    0.2841   11129.6435
   18.9272     5.4134    -1.989    1.077053    0.000000    0.037345   -2.554588   -0.040813     0.0000    0.0000    0.2829   7153.3905
   20.4256     4.9783    -2.057    1.088671    0.000000    0.039044   -2.974631   -0.039592     0.0000    0.0000    0.2813   4350.8429
   21.7844     4.5837    -2.208    1.090511    0.000000    0.041994   -3.399534   -0.037330     0.0000    0.0000    0.2792   2470.2384
   22.9944     4.2323    -2.469    1.078054    0.000000    0.046446   -3.792886   -0.033367     0.0000    0.0000    0.2759   1283.6503
   24.0473     3.9265    -2.862    1.044571    0.000000    0.052186   -4.095393   -0.026782     0.0000    0.0000    0.2706   592.6063
   24.9360     3.6684    -3.385    0.981135    0.000000    0.058003   -4.222669   -0.016756     0.0000    0.0000    0.2620   231.6812
   25.6543     3.4598    -4.006    0.878261    0.000000    0.061485   -4.079878   -0.003891     0.0000    0.0000    0.2493   70.4542
   26.1974     3.3021    -4.689    0.729659    0.000000    0.059837   -3.613559    0.007003     0.0000    0.0000    0.2352   13.9523
   26.5616     3.1963    -5.488    0.537324    0.000000    0.051612   -2.938800    0.000811     0.0000    0.0000    0.2441    1.0723
   26.7442     3.1433    -7.494    0.325356    0.000000    0.042794   -2.058570    0.016156     0.0000    0.0000    0.2064    0.0000


Main Wing Cp Coefficients
 Panel     CtrlPt.x        CtrlPt.y        CtrlPt.z       Nx      Ny       Nz        Area       Cp
Main WingCp Coefficients
Strip 1
  13       1.849e+01      -2.673e+01       9.297e-01           0.158           0.010          -0.987       4.236e-03         -1.1072
  14       1.840e+01      -2.673e+01       9.213e-01           0.071          -0.015          -0.997       1.233e-02         -1.0452
  15       1.823e+01      -2.673e+01       9.090e-01           0.069          -0.016          -0.997       1.975e-02         -0.9019
  16       1.798e+01      -2.673e+01       8.920e-01           0.067          -0.016          -0.998       2.602e-02         -0.7053
  17       1.767e+01      -2.673e+01       8.717e-01           0.065          -0.017          -0.998       3.077e-02         -0.5232
  18       1.732e+01      -2.673e+01       8.497e-01           0.061          -0.019          -0.998       3.374e-02         -0.3836
  19       1.695e+01      -2.673e+01       8.288e-01           0.051          -0.022          -0.998       3.473e-02         -0.2840
  20       1.657e+01      -2.673e+01       8.124e-01           0.036          -0.029          -0.999       3.370e-02         -0.2095
  21       1.622e+01      -2.673e+01       8.029e-01           0.017          -0.039          -0.999       3.072e-02         -0.1466
  22       1.591e+01      -2.673e+01       8.039e-01          -0.027          -0.061          -0.998       2.598e-02         -0.0776
  23       1.566e+01      -2.673e+01       8.198e-01          -0.112          -0.106          -0.988       1.988e-02          0.0438
  24       1.549e+01      -2.673e+01       8.532e-01          -0.297          -0.207          -0.932       1.310e-02          0.2982
  25       1.540e+01      -2.673e+01       9.039e-01          -0.720          -0.433          -0.542       7.503e-03          0.1592
  26       1.540e+01      -2.673e+01       9.673e-01          -0.749          -0.413           0.518       8.302e-03         -1.7062
  27       1.549e+01      -2.672e+01       1.035e+00          -0.431          -0.221           0.875       1.418e-02         -1.7174
  28       1.566e+01      -2.672e+01       1.097e+00          -0.255          -0.121           0.959       2.061e-02         -1.1070
  29       1.591e+01      -2.672e+01       1.146e+00          -0.139          -0.058           0.989       2.629e-02         -0.8258
  30       1.622e+01      -2.672e+01       1.174e+00          -0.048          -0.011           0.999       3.073e-02         -0.6716
  31       1.657e+01      -2.672e+01       1.177e+00           0.025           0.024           0.999       3.364e-02         -0.5665
  32       1.695e+01      -2.672e+01       1.159e+00           0.073           0.046           0.996       3.473e-02         -0.5124
  33       1.732e+01      -2.672e+01       1.125e+00           0.109           0.060           0.992       3.384e-02         -0.5197
  34       1.767e+01      -2.672e+01       1.081e+00           0.137           0.071           0.988       3.099e-02         -0.5891
  35       1.798e+01      -2.672e+01       1.035e+00           0.160           0.079           0.984       2.630e-02         -0.7262
  36       1.823e+01      -2.673e+01       9.927e-01           0.179           0.085           0.980       2.004e-02         -0.9113
  37       1.840e+01      -2.673e+01       9.599e-01           0.193           0.089           0.977       1.255e-02         -1.0873
  38       1.849e+01      -2.673e+01       9.400e-01           0.279           0.113           0.954       4.366e-03         -1.0638
Strip 2
  39       1.844e+01      -2.655e+01       9.233e-01           0.158           0.010          -0.987       1.289e-02         -0.4569
  40       1.835e+01      -2.655e+01       9.147e-01           0.071          -0.015          -0.997       3.752e-02         -0.4384
  41       1.817e+01      -2.655e+01       9.022e-01           0.069          -0.016          -0.997       6.010e-02         -0.3998
  42       1.792e+01      -2.655e+01       8.850e-01           0.067          -0.016          -0.998       7.919e-02         -0.3373
  43       1.760e+01      -2.655e+01       8.643e-01           0.065          -0.017          -0.998       9.367e-02         -0.2701
  44       1.725e+01      -2.655e+01       8.419e-01           0.061          -0.019          -0.998       1.027e-01         -0.2118
  45       1.687e+01      -2.655e+01       8.206e-01           0.051          -0.022          -0.998       1.057e-01         -0.1620
  46       1.649e+01      -2.655e+01       8.039e-01           0.036          -0.029          -0.999       1.026e-01         -0.1137
  47       1.613e+01      -2.655e+01       7.943e-01           0.017          -0.039          -0.999       9.350e-02         -0.0617
  48       1.581e+01      -2.655e+01       7.953e-01          -0.027          -0.061          -0.998       7.908e-02          0.0160
  49       1.556e+01      -2.655e+01       8.115e-01          -0.112          -0.106          -0.988       6.051e-02          0.1785
  50       1.538e+01      -2.655e+01       8.454e-01          -0.297          -0.207          -0.932       3.987e-02          0.4719
  51       1.529e+01      -2.655e+01       8.970e-01          -0.720          -0.433          -0.543       2.284e-02          0.0471
  52       1.529e+01      -2.654e+01       9.615e-01          -0.749          -0.413           0.518       2.526e-02         -2.3229
  53       1.538e+01      -2.654e+01       1.030e+00          -0.432          -0.221           0.874       4.316e-02         -2.1638
  54       1.556e+01      -2.654e+01       1.093e+00          -0.255          -0.121           0.959       6.274e-02         -1.3915
  55       1.581e+01      -2.654e+01       1.143e+00          -0.139          -0.058           0.989       8.003e-02         -1.0082
  56       1.613e+01      -2.654e+01       1.171e+00          -0.048          -0.011           0.999       9.354e-02         -0.7775
  57       1.649e+01      -2.654e+01       1.175e+00           0.025           0.024           0.999       1.024e-01         -0.6099
  58       1.687e+01      -2.654e+01       1.156e+00           0.073           0.046           0.996       1.057e-01         -0.5002
  59       1.725e+01      -2.654e+01       1.122e+00           0.109           0.060           0.992       1.030e-01         -0.4516
  60       1.760e+01      -2.654e+01       1.078e+00           0.137           0.071           0.988       9.432e-02         -0.4495
  61       1.792e+01      -2.654e+01       1.031e+00           0.160           0.079           0.984       8.006e-02         -0.4795
  62       1.817e+01      -2.654e+01       9.873e-01           0.179           0.085           0.980       6.099e-02         -0.5127
  63       1.835e+01      -2.654e+01       9.540e-01           0.193           0.089           0.977       3.819e-02         -0.5180
  64       1.844e+01      -2.655e+01       9.337e-01           0.279           0.113           0.954       1.329e-02         -0.4169
Strip 3
  65       1.834e+01      -2.618e+01       9.104e-01           0.158           0.010          -0.987       2.210e-02          0.0055
  66       1.824e+01      -2.618e+01       9.016e-01           0.071          -0.015          -0.997       6.431e-02         -0.0029
  67       1.806e+01      -2.618e+01       8.887e-01           0.069          -0.016          -0.997       1.030e-01         -0.0295
  68       1.780e+01      -2.618e+01       8.709e-01           0.067          -0.016          -0.998       1.357e-01         -0.0472
  69       1.747e+01      -2.618e+01       8.495e-01           0.065          -0.017          -0.998       1.605e-01         -0.0492
  70       1.710e+01      -2.618e+01       8.264e-01           0.061          -0.019          -0.998       1.760e-01         -0.0406
  71       1.671e+01      -2.619e+01       8.044e-01           0.051          -0.022          -0.998       1.812e-01         -0.0216
  72       1.632e+01      -2.619e+01       7.872e-01           0.036          -0.029          -0.999       1.758e-01          0.0131
  73       1.595e+01      -2.619e+01       7.772e-01           0.017          -0.039          -0.999       1.603e-01          0.0696
  74       1.562e+01      -2.619e+01       7.782e-01          -0.027          -0.061          -0.998       1.356e-01          0.1752
  75       1.536e+01      -2.619e+01       7.950e-01          -0.112          -0.106          -0.988       1.037e-01          0.3753
  76       1.518e+01      -2.618e+01       8.300e-01          -0.297          -0.207          -0.932       6.836e-02          0.6457
  77       1.508e+01      -2.618e+01       8.833e-01          -0.720          -0.433          -0.543       3.916e-02         -0.0544
  78       1.508e+01      -2.618e+01       9.500e-01          -0.750          -0.413           0.517       4.329e-02         -2.8422
  79       1.518e+01      -2.618e+01       1.021e+00          -0.432          -0.222           0.874       7.396e-02         -2.5565
  80       1.536e+01      -2.618e+01       1.086e+00          -0.255          -0.121           0.959       1.075e-01         -1.6756
  81       1.562e+01      -2.617e+01       1.137e+00          -0.139          -0.058           0.989       1.371e-01         -1.2213
  82       1.595e+01      -2.617e+01       1.167e+00          -0.048          -0.011           0.999       1.603e-01         -0.9160
  83       1.632e+01      -2.617e+01       1.171e+00           0.025           0.024           0.999       1.755e-01         -0.6731
  84       1.671e+01      -2.617e+01       1.151e+00           0.073           0.046           0.996       1.812e-01         -0.4892
  85       1.710e+01      -2.617e+01       1.115e+00           0.109           0.060           0.992       1.766e-01         -0.3615
  86       1.747e+01      -2.618e+01       1.070e+00           0.137           0.071           0.988       1.617e-01         -0.2655
  87       1.780e+01      -2.618e+01       1.021e+00           0.160           0.079           0.984       1.372e-01         -0.1808
  88       1.806e+01      -2.618e+01       9.766e-01           0.179           0.085           0.980       1.045e-01         -0.0916
  89       1.824e+01      -2.618e+01       9.421e-01           0.193           0.089           0.977       6.546e-02         -0.0018
  90       1.834e+01      -2.618e+01       9.213e-01           0.279           0.113           0.954       2.278e-02          0.1217
Strip 4
  91       1.818e+01      -2.564e+01       8.913e-01           0.158           0.010          -0.987       3.219e-02          0.1069
  92       1.808e+01      -2.564e+01       8.820e-01           0.071          -0.015          -0.997       9.368e-02          0.1023
  93       1.789e+01      -2.564e+01       8.685e-01           0.069          -0.016          -0.997       1.501e-01          0.0781
  94       1.762e+01      -2.564e+01       8.498e-01           0.067          -0.016          -0.998       1.977e-01          0.0571
  95       1.728e+01      -2.564e+01       8.274e-01           0.065          -0.017          -0.998       2.339e-01          0.0493
  96       1.689e+01      -2.564e+01       8.032e-01           0.061          -0.019          -0.998       2.564e-01          0.0529
  97       1.648e+01      -2.564e+01       7.802e-01           0.051          -0.022          -0.998       2.639e-01          0.0700
  98       1.607e+01      -2.564e+01       7.621e-01           0.036          -0.029          -0.999       2.561e-01          0.1084
  99       1.568e+01      -2.564e+01       7.517e-01           0.017          -0.039          -0.999       2.335e-01          0.1733
 100       1.534e+01      -2.564e+01       7.528e-01          -0.027          -0.061          -0.998       1.975e-01          0.2856
 101       1.506e+01      -2.564e+01       7.703e-01          -0.112          -0.106          -0.988       1.511e-01          0.4785
 102       1.487e+01      -2.564e+01       8.070e-01          -0.297          -0.207          -0.932       9.962e-02          0.6977
 103       1.477e+01      -2.564e+01       8.629e-01          -0.719          -0.433          -0.544       5.708e-02         -0.2144
 104       1.477e+01      -2.564e+01       9.327e-01          -0.750          -0.413           0.516       6.304e-02         -3.2479
 105       1.487e+01      -2.564e+01       1.007e+00          -0.432          -0.222           0.874       1.077e-01         -2.8359
 106       1.506e+01      -2.563e+01       1.075e+00          -0.255          -0.121           0.959       1.566e-01         -1.8680
 107       1.534e+01      -2.563e+01       1.129e+00          -0.139          -0.058           0.989       1.998e-01         -1.3799
 108       1.568e+01      -2.563e+01       1.160e+00          -0.048          -0.011           0.999       2.335e-01         -1.0462
 109       1.607e+01      -2.563e+01       1.164e+00           0.025           0.024           0.999       2.556e-01         -0.7659
 110       1.648e+01      -2.563e+01       1.143e+00           0.073           0.046           0.996       2.640e-01         -0.5404
 111       1.689e+01      -2.563e+01       1.106e+00           0.109           0.060           0.992       2.573e-01         -0.3721
 112       1.728e+01      -2.563e+01       1.058e+00           0.137           0.071           0.988       2.356e-01         -0.2390
 113       1.762e+01      -2.564e+01       1.008e+00           0.160           0.079           0.984       1.999e-01         -0.1228
 114       1.789e+01      -2.564e+01       9.607e-01           0.179           0.085           0.980       1.523e-01         -0.0089
 115       1.808e+01      -2.564e+01       9.245e-01           0.193           0.089           0.977       9.538e-02          0.0977
 116       1.818e+01      -2.564e+01       9.026e-01           0.279           0.113           0.954       3.319e-02          0.2238
Strip 5
 117       1.798e+01      -2.492e+01       8.660e-01           0.158           0.010          -0.987       4.347e-02          0.1418
 118       1.787e+01      -2.492e+01       8.561e-01           0.071          -0.015          -0.997       1.265e-01          0.1412
 119       1.767e+01      -2.492e+01       8.418e-01           0.069          -0.016          -0.997       2.027e-01          0.1228
 120       1.738e+01      -2.492e+01       8.220e-01           0.067          -0.016          -0.998       2.670e-01          0.1055
 121       1.701e+01      -2.492e+01       7.983e-01           0.065          -0.017          -0.998       3.159e-01          0.1005
 122       1.660e+01      -2.492e+01       7.726e-01           0.061          -0.019          -0.998       3.463e-01          0.1071
 123       1.617e+01      -2.492e+01       7.482e-01           0.051          -0.022          -0.998       3.565e-01          0.1279
 124       1.573e+01      -2.492e+01       7.290e-01           0.036          -0.029          -0.999       3.459e-01          0.1698
 125       1.532e+01      -2.493e+01       7.180e-01           0.017          -0.039          -0.999       3.153e-01          0.2359
 126       1.496e+01      -2.493e+01       7.191e-01          -0.027          -0.061          -0.998       2.668e-01          0.3453
 127       1.467e+01      -2.492e+01       7.377e-01          -0.112          -0.106          -0.988       2.042e-01          0.5294
 128       1.447e+01      -2.492e+01       7.766e-01          -0.296          -0.207          -0.932       1.346e-01          0.7137
 129       1.436e+01      -2.492e+01       8.358e-01          -0.719          -0.432          -0.544       7.714e-02         -0.3380
 130       1.436e+01      -2.492e+01       9.099e-01          -0.750          -0.414           0.516       8.510e-02         -3.5268
 131       1.447e+01      -2.492e+01       9.886e-01          -0.432          -0.222           0.874       1.454e-01         -3.0223
 132       1.467e+01      -2.492e+01       1.061e+00          -0.255          -0.121           0.959       2.114e-01         -1.9915
 133       1.496e+01      -2.491e+01       1.118e+00          -0.139          -0.058           0.989       2.698e-01         -1.4822
 134       1.532e+01      -2.491e+01       1.151e+00          -0.048          -0.011           0.999       3.154e-01         -1.1367
 135       1.573e+01      -2.491e+01       1.155e+00           0.025           0.024           0.999       3.453e-01         -0.8426
 136       1.617e+01      -2.491e+01       1.133e+00           0.073           0.046           0.996       3.566e-01         -0.5992
 137       1.660e+01      -2.491e+01       1.094e+00           0.109           0.060           0.992       3.475e-01         -0.4112
 138       1.701e+01      -2.492e+01       1.043e+00           0.137           0.071           0.988       3.182e-01         -0.2587
 139       1.738e+01      -2.492e+01       9.892e-01           0.160           0.079           0.984       2.701e-01         -0.1249
 140       1.767e+01      -2.492e+01       9.395e-01           0.179           0.085           0.980       2.058e-01          0.0032
 141       1.787e+01      -2.492e+01       9.012e-01           0.193           0.089           0.977       1.289e-01          0.1202
 142       1.798e+01      -2.492e+01       8.780e-01           0.279           0.113           0.954       4.485e-02          0.2494
Strip 6
 143       1.772e+01      -2.403e+01       8.347e-01           0.158           0.010          -0.987       5.621e-02          0.1567
 144       1.761e+01      -2.403e+01       8.241e-01           0.071          -0.015          -0.997       1.636e-01          0.1592
 145       1.739e+01      -2.403e+01       8.088e-01           0.069          -0.016          -0.997       2.621e-01          0.1457
 146       1.708e+01      -2.403e+01       7.876e-01           0.067          -0.016          -0.998       3.453e-01          0.1326
 147       1.669e+01      -2.403e+01       7.622e-01           0.065          -0.017          -0.998       4.085e-01          0.1311
 148       1.625e+01      -2.404e+01       7.347e-01           0.061          -0.019          -0.998       4.478e-01          0.1405
 149       1.579e+01      -2.404e+01       7.086e-01           0.051          -0.022          -0.998       4.610e-01          0.1634
 150       1.532e+01      -2.404e+01       6.880e-01           0.036          -0.029          -0.999       4.474e-01          0.2057
 151       1.488e+01      -2.404e+01       6.762e-01           0.017          -0.039          -0.999       4.078e-01          0.2705
 152       1.449e+01      -2.404e+01       6.774e-01          -0.027          -0.061          -0.998       3.450e-01          0.3768
 153       1.418e+01      -2.404e+01       6.973e-01          -0.112          -0.106          -0.988       2.641e-01          0.5554
 154       1.396e+01      -2.404e+01       7.390e-01          -0.296          -0.207          -0.932       1.742e-01          0.7195
 155       1.385e+01      -2.403e+01       8.024e-01          -0.718          -0.432          -0.545       9.983e-02         -0.4096
 156       1.385e+01      -2.403e+01       8.817e-01          -0.751          -0.414           0.515       1.100e-01         -3.6862
 157       1.396e+01      -2.403e+01       9.659e-01          -0.432          -0.222           0.874       1.879e-01         -3.1292
 158       1.418e+01      -2.403e+01       1.044e+00          -0.255          -0.121           0.959       2.733e-01         -2.0620
 159       1.449e+01      -2.403e+01       1.104e+00          -0.139          -0.058           0.989       3.488e-01         -1.5410
 160       1.488e+01      -2.403e+01       1.140e+00          -0.048          -0.011           0.999       4.079e-01         -1.1900
 161       1.532e+01      -2.403e+01       1.144e+00           0.025           0.024           0.999       4.466e-01         -0.8907
 162       1.579e+01      -2.403e+01       1.121e+00           0.073           0.046           0.996       4.612e-01         -0.6403
 163       1.625e+01      -2.403e+01       1.078e+00           0.109           0.060           0.992       4.495e-01         -0.4435
 164       1.669e+01      -2.403e+01       1.024e+00           0.137           0.071           0.988       4.116e-01         -0.2810
 165       1.708e+01      -2.403e+01       9.666e-01           0.160           0.079           0.984       3.494e-01         -0.1373
 166       1.739e+01      -2.403e+01       9.134e-01           0.179           0.085           0.980       2.662e-01         -0.0005
 167       1.761e+01      -2.403e+01       8.724e-01           0.193           0.089           0.977       1.667e-01          0.1236
 168       1.772e+01      -2.403e+01       8.475e-01           0.279           0.113           0.954       5.801e-02          0.2552
Strip 7
 169       1.742e+01      -2.298e+01       7.976e-01           0.158           0.010          -0.987       7.061e-02          0.1639
 170       1.730e+01      -2.298e+01       7.862e-01           0.071          -0.015          -0.997       2.056e-01          0.1686
 171       1.706e+01      -2.298e+01       7.697e-01           0.069          -0.016          -0.997       3.293e-01          0.1585
 172       1.673e+01      -2.298e+01       7.468e-01           0.067          -0.016          -0.998       4.338e-01          0.1483
 173       1.631e+01      -2.298e+01       7.194e-01           0.065          -0.017          -0.998       5.131e-01          0.1491
 174       1.584e+01      -2.298e+01       6.898e-01           0.061          -0.019          -0.998       5.625e-01          0.1601
 175       1.533e+01      -2.298e+01       6.616e-01           0.051          -0.022          -0.998       5.791e-01          0.1835
 176       1.483e+01      -2.298e+01       6.395e-01           0.036          -0.029          -0.999       5.620e-01          0.2251
 177       1.436e+01      -2.298e+01       6.267e-01           0.017          -0.039          -0.999       5.123e-01          0.2883
 178       1.394e+01      -2.298e+01       6.281e-01          -0.027          -0.061          -0.998       4.334e-01          0.3921
 179       1.361e+01      -2.298e+01       6.495e-01          -0.112          -0.106          -0.988       3.318e-01          0.5674
 180       1.337e+01      -2.298e+01       6.944e-01          -0.296          -0.207          -0.933       2.189e-01          0.7229
 181       1.325e+01      -2.298e+01       7.628e-01          -0.718          -0.432          -0.546       1.255e-01         -0.4325
 182       1.325e+01      -2.298e+01       8.483e-01          -0.751          -0.414           0.514       1.381e-01         -3.7454
 183       1.337e+01      -2.298e+01       9.391e-01          -0.433          -0.222           0.874       2.359e-01         -3.1718
 184       1.361e+01      -2.298e+01       1.023e+00          -0.255          -0.121           0.959       3.432e-01         -2.0924
 185       1.394e+01      -2.297e+01       1.088e+00          -0.139          -0.058           0.989       4.382e-01         -1.5685
 186       1.436e+01      -2.297e+01       1.126e+00          -0.048          -0.011           0.999       5.124e-01         -1.2165
 187       1.483e+01      -2.297e+01       1.131e+00           0.025           0.024           0.999       5.611e-01         -0.9160
 188       1.533e+01      -2.297e+01       1.106e+00           0.073           0.046           0.996       5.794e-01         -0.6633
 189       1.584e+01      -2.297e+01       1.060e+00           0.109           0.060           0.992       5.647e-01         -0.4629
 190       1.631e+01      -2.298e+01       1.002e+00           0.137           0.071           0.988       5.172e-01         -0.2959
 191       1.673e+01      -2.298e+01       9.398e-01           0.160           0.079           0.984       4.390e-01         -0.1471
 192       1.706e+01      -2.298e+01       8.824e-01           0.179           0.085           0.980       3.344e-01         -0.0055
 193       1.730e+01      -2.298e+01       8.382e-01           0.193           0.089           0.977       2.094e-01          0.1227
 194       1.742e+01      -2.298e+01       8.114e-01           0.278           0.113           0.954       7.289e-02          0.2560
Strip 8
 195       1.707e+01      -2.177e+01       7.549e-01           0.158           0.010          -0.987       8.680e-02          0.1680
 196       1.694e+01      -2.177e+01       7.426e-01           0.071          -0.015          -0.997       2.527e-01          0.1738
 197       1.669e+01      -2.177e+01       7.247e-01           0.069          -0.016          -0.997       4.048e-01          0.1656
 198       1.632e+01      -2.177e+01       7.000e-01           0.067          -0.016          -0.998       5.333e-01          0.1571
 199       1.587e+01      -2.177e+01       6.703e-01           0.065          -0.017          -0.998       6.308e-01          0.1590
 200       1.536e+01      -2.177e+01       6.382e-01           0.061          -0.019          -0.998       6.916e-01          0.1704
 201       1.481e+01      -2.177e+01       6.077e-01           0.051          -0.022          -0.998       7.119e-01          0.1936
 202       1.427e+01      -2.177e+01       5.837e-01           0.036          -0.029          -0.999       6.909e-01          0.2342
 203       1.376e+01      -2.177e+01       5.699e-01           0.017          -0.039          -0.999       6.298e-01          0.2958
 204       1.331e+01      -2.177e+01       5.713e-01          -0.027          -0.061          -0.998       5.329e-01          0.3975
 205       1.294e+01      -2.177e+01       5.946e-01          -0.112          -0.106          -0.988       4.080e-01          0.5705
 206       1.269e+01      -2.177e+01       6.432e-01          -0.296          -0.207          -0.933       2.692e-01          0.7263
 207       1.256e+01      -2.177e+01       7.172e-01          -0.717          -0.432          -0.547       1.544e-01         -0.4166
 208       1.256e+01      -2.177e+01       8.098e-01          -0.752          -0.414           0.513       1.697e-01         -3.7264
 209       1.269e+01      -2.177e+01       9.082e-01          -0.433          -0.222           0.874       2.899e-01         -3.1652
 210       1.294e+01      -2.177e+01       9.989e-01          -0.255          -0.121           0.959       4.218e-01         -2.0934
 211       1.331e+01      -2.177e+01       1.070e+00          -0.139          -0.058           0.989       5.386e-01         -1.5737
 212       1.376e+01      -2.176e+01       1.111e+00          -0.048          -0.011           0.999       6.299e-01         -1.2245
 213       1.427e+01      -2.176e+01       1.116e+00           0.025           0.024           0.999       6.898e-01         -0.9255
 214       1.481e+01      -2.176e+01       1.089e+00           0.073           0.046           0.996       7.124e-01         -0.6732
 215       1.536e+01      -2.177e+01       1.039e+00           0.109           0.060           0.992       6.944e-01         -0.4722
 216       1.587e+01      -2.177e+01       9.763e-01           0.137           0.071           0.988       6.359e-01         -0.3035
 217       1.632e+01      -2.177e+01       9.090e-01           0.160           0.079           0.984       5.398e-01         -0.1525
 218       1.669e+01      -2.177e+01       8.469e-01           0.179           0.085           0.980       4.112e-01         -0.0087
 219       1.694e+01      -2.177e+01       7.990e-01           0.193           0.089           0.977       2.575e-01          0.1218
 220       1.707e+01      -2.177e+01       7.700e-01           0.278           0.113           0.954       8.963e-02          0.2559
Strip 9
 221       1.668e+01      -2.041e+01       7.071e-01           0.158           0.010          -0.987       1.048e-01          0.1702
 222       1.654e+01      -2.041e+01       6.937e-01           0.071          -0.015          -0.997       3.052e-01          0.1767
 223       1.626e+01      -2.041e+01       6.742e-01           0.069          -0.016          -0.997       4.889e-01          0.1694
 224       1.587e+01      -2.041e+01       6.474e-01           0.067          -0.016          -0.998       6.442e-01          0.1615
 225       1.538e+01      -2.041e+01       6.151e-01           0.065          -0.017          -0.998       7.619e-01          0.1637
 226       1.482e+01      -2.042e+01       5.803e-01           0.061          -0.019          -0.998       8.354e-01          0.1750
 227       1.423e+01      -2.042e+01       5.471e-01           0.051          -0.022          -0.998       8.600e-01          0.1974
 228       1.364e+01      -2.042e+01       5.211e-01           0.036          -0.029          -0.999       8.345e-01          0.2369
 229       1.308e+01      -2.042e+01       5.061e-01           0.017          -0.039          -0.999       7.608e-01          0.2966
 230       1.259e+01      -2.042e+01       5.076e-01          -0.027          -0.061          -0.998       6.437e-01          0.3963
 231       1.220e+01      -2.042e+01       5.329e-01          -0.112          -0.106          -0.988       4.930e-01          0.5678
 232       1.192e+01      -2.042e+01       5.857e-01          -0.296          -0.207          -0.933       3.254e-01          0.7300
 233       1.178e+01      -2.041e+01       6.661e-01          -0.717          -0.431          -0.548       1.866e-01         -0.3719
 234       1.178e+01      -2.041e+01       7.667e-01          -0.752          -0.415           0.512       2.049e-01         -3.6491
 235       1.192e+01      -2.041e+01       8.735e-01          -0.433          -0.222           0.873       3.500e-01         -3.1222
 236       1.220e+01      -2.041e+01       9.720e-01          -0.255          -0.121           0.959       5.094e-01         -2.0730
 237       1.259e+01      -2.041e+01       1.049e+00          -0.140          -0.058           0.989       6.505e-01         -1.5634
 238       1.308e+01      -2.041e+01       1.094e+00          -0.048          -0.011           0.999       7.609e-01         -1.2199
 239       1.364e+01      -2.041e+01       1.099e+00           0.025           0.024           0.999       8.333e-01         -0.9245
 240       1.423e+01      -2.041e+01       1.070e+00           0.073           0.046           0.996       8.607e-01         -0.6745
 241       1.482e+01      -2.041e+01       1.016e+00           0.109           0.060           0.992       8.389e-01         -0.4744
 242       1.538e+01      -2.041e+01       9.475e-01           0.137           0.071           0.988       7.683e-01         -0.3058
 243       1.587e+01      -2.041e+01       8.744e-01           0.160           0.079           0.984       6.521e-01         -0.1544
 244       1.626e+01      -2.041e+01       8.069e-01           0.179           0.085           0.980       4.968e-01         -0.0099
 245       1.654e+01      -2.041e+01       7.549e-01           0.193           0.089           0.977       3.111e-01          0.1214
 246       1.668e+01      -2.041e+01       7.234e-01           0.278           0.113           0.954       1.083e-01          0.2556
Strip 10
 247       1.625e+01      -1.892e+01       6.543e-01           0.158           0.010          -0.987       1.247e-01          0.1715
 248       1.610e+01      -1.892e+01       6.397e-01           0.071          -0.015          -0.997       3.631e-01          0.1781
 249       1.580e+01      -1.892e+01       6.186e-01           0.069          -0.016          -0.997       5.817e-01          0.1711
 250       1.537e+01      -1.892e+01       5.893e-01           0.067          -0.016          -0.998       7.663e-01          0.1633
 251       1.484e+01      -1.892e+01       5.543e-01           0.065          -0.017          -0.998       9.065e-01          0.1653
 252       1.423e+01      -1.892e+01       5.164e-01           0.061          -0.019          -0.998       9.938e-01          0.1759
 253       1.359e+01      -1.892e+01       4.803e-01           0.051          -0.022          -0.998       1.023e+00          0.1973
 254       1.294e+01      -1.892e+01       4.520e-01           0.036          -0.029          -0.999       9.928e-01          0.2353
 255       1.234e+01      -1.892e+01       4.357e-01           0.017          -0.039          -0.999       9.051e-01          0.2932
 256       1.181e+01      -1.892e+01       4.374e-01          -0.027          -0.061          -0.998       7.659e-01          0.3905
 257       1.138e+01      -1.892e+01       4.648e-01          -0.112          -0.106          -0.988       5.866e-01          0.5608
 258       1.107e+01      -1.892e+01       5.223e-01          -0.296          -0.207          -0.933       3.872e-01          0.7335
 259       1.092e+01      -1.892e+01       6.097e-01          -0.717          -0.431          -0.548       2.221e-01         -0.3071
 260       1.092e+01      -1.891e+01       7.191e-01          -0.753          -0.415           0.511       2.436e-01         -3.5291
 261       1.107e+01      -1.891e+01       8.353e-01          -0.433          -0.223           0.873       4.162e-01         -3.0521
 262       1.138e+01      -1.891e+01       9.424e-01          -0.256          -0.121           0.959       6.058e-01         -2.0372
 263       1.181e+01      -1.891e+01       1.026e+00          -0.140          -0.058           0.988       7.737e-01         -1.5420
 264       1.234e+01      -1.891e+01       1.075e+00          -0.048          -0.011           0.999       9.052e-01         -1.2066
 265       1.294e+01      -1.891e+01       1.081e+00           0.025           0.024           0.999       9.914e-01         -0.9166
 266       1.359e+01      -1.891e+01       1.049e+00           0.073           0.046           0.996       1.024e+00         -0.6700
 267       1.423e+01      -1.891e+01       9.904e-01           0.109           0.060           0.992       9.982e-01         -0.4720
 268       1.484e+01      -1.891e+01       9.158e-01           0.137           0.071           0.988       9.141e-01         -0.3047
 269       1.537e+01      -1.891e+01       8.362e-01           0.160           0.078           0.984       7.759e-01         -0.1539
 270       1.580e+01      -1.891e+01       7.628e-01           0.179           0.085           0.980       5.912e-01         -0.0096
 271       1.610e+01      -1.892e+01       7.063e-01           0.193           0.089           0.977       3.702e-01          0.1215
 272       1.625e+01      -1.892e+01       6.720e-01           0.278           0.113           0.954       1.289e-01          0.2554
Strip 11
 273       1.579e+01      -1.729e+01       5.969e-01           0.158           0.010          -0.987       1.463e-01          0.1723
 274       1.562e+01      -1.729e+01       5.811e-01           0.071          -0.015          -0.997       4.261e-01          0.1789
 275       1.529e+01      -1.729e+01       5.581e-01           0.069          -0.016          -0.997       6.825e-01          0.1716
 276       1.482e+01      -1.729e+01       5.263e-01           0.067          -0.016          -0.998       8.992e-01          0.1635
 277       1.425e+01      -1.729e+01       4.882e-01           0.065          -0.017          -0.998       1.064e+00          0.1648
 278       1.359e+01      -1.729e+01       4.470e-01           0.061          -0.019          -0.998       1.166e+00          0.1745
 279       1.289e+01      -1.729e+01       4.078e-01           0.051          -0.022          -0.998       1.200e+00          0.1947
 280       1.219e+01      -1.729e+01       3.770e-01           0.036          -0.029          -0.999       1.165e+00          0.2310
 281       1.153e+01      -1.729e+01       3.592e-01           0.017          -0.039          -0.999       1.062e+00          0.2867
 282       1.095e+01      -1.729e+01       3.611e-01          -0.027          -0.061          -0.998       8.987e-01          0.3815
 283       1.048e+01      -1.729e+01       3.909e-01          -0.112          -0.106          -0.988       6.884e-01          0.5504
 284       1.016e+01      -1.729e+01       4.534e-01          -0.296          -0.206          -0.933       4.545e-01          0.7361
 285       9.987e+00      -1.729e+01       5.485e-01          -0.716          -0.431          -0.549       2.608e-01         -0.2286
 286       9.987e+00      -1.729e+01       6.674e-01          -0.753          -0.415           0.511       2.857e-01         -3.3775
 287       1.016e+01      -1.729e+01       7.937e-01          -0.434          -0.223           0.873       4.881e-01         -2.9618
 288       1.048e+01      -1.729e+01       9.102e-01          -0.256          -0.121           0.959       7.107e-01         -1.9897
 289       1.095e+01      -1.728e+01       1.002e+00          -0.140          -0.058           0.988       9.077e-01         -1.5124
 290       1.153e+01      -1.728e+01       1.054e+00          -0.048          -0.011           0.999       1.062e+00         -1.1871
 291       1.219e+01      -1.728e+01       1.061e+00           0.025           0.024           0.999       1.163e+00         -0.9036
 292       1.289e+01      -1.728e+01       1.026e+00           0.073           0.046           0.996       1.202e+00         -0.6615
 293       1.359e+01      -1.728e+01       9.624e-01           0.109           0.060           0.992       1.171e+00         -0.4666
 294       1.425e+01      -1.729e+01       8.813e-01           0.137           0.071           0.988       1.073e+00         -0.3012
 295       1.482e+01      -1.729e+01       7.948e-01           0.160           0.078           0.984       9.106e-01         -0.1518
 296       1.529e+01      -1.729e+01       7.150e-01           0.179           0.085           0.980       6.938e-01         -0.0085
 297       1.562e+01      -1.729e+01       6.534e-01           0.193           0.089           0.977       4.344e-01          0.1220
 298       1.579e+01      -1.729e+01       6.162e-01           0.278           0.113           0.954       1.512e-01          0.2555
Strip 12
 299       1.529e+01      -1.554e+01       5.354e-01           0.158           0.010          -0.987       1.695e-01          0.1728
 300       1.510e+01      -1.554e+01       5.182e-01           0.071          -0.015          -0.997       4.935e-01          0.1790
 301       1.475e+01      -1.554e+01       4.932e-01           0.069          -0.016          -0.997       7.905e-01          0.1713
 302       1.424e+01      -1.555e+01       4.587e-01           0.067          -0.016          -0.998       1.042e+00          0.1625
 303       1.361e+01      -1.555e+01       4.173e-01           0.065          -0.017          -0.998       1.232e+00          0.1630
 304       1.290e+01      -1.555e+01       3.725e-01           0.061          -0.019          -0.998       1.351e+00          0.1716
 305       1.214e+01      -1.555e+01       3.299e-01           0.051          -0.022          -0.998       1.390e+00          0.1902
 306       1.138e+01      -1.555e+01       2.965e-01           0.036          -0.029          -0.999       1.349e+00          0.2246
 307       1.066e+01      -1.555e+01       2.772e-01           0.017          -0.039          -0.999       1.230e+00          0.2780
 308       1.003e+01      -1.555e+01       2.792e-01          -0.027          -0.061          -0.998       1.041e+00          0.3699
 309       9.526e+00      -1.555e+01       3.116e-01          -0.112          -0.106          -0.988       7.975e-01          0.5371
 310       9.170e+00      -1.555e+01       3.795e-01          -0.296          -0.206          -0.933       5.267e-01          0.7372
 311       8.987e+00      -1.554e+01       4.828e-01          -0.716          -0.431          -0.549       3.022e-01         -0.1408
 312       8.987e+00      -1.554e+01       6.120e-01          -0.753          -0.415           0.510       3.308e-01         -3.2018
 313       9.170e+00      -1.554e+01       7.492e-01          -0.434          -0.223           0.873       5.652e-01         -2.8554
 314       9.526e+00      -1.554e+01       8.757e-01          -0.256          -0.121           0.959       8.230e-01         -1.9329
 315       1.003e+01      -1.554e+01       9.749e-01          -0.140          -0.058           0.988       1.051e+00         -1.4766
 316       1.066e+01      -1.554e+01       1.032e+00          -0.048          -0.011           0.999       1.230e+00         -1.1628
 317       1.138e+01      -1.554e+01       1.039e+00           0.025           0.024           0.999       1.348e+00         -0.8871
 318       1.214e+01      -1.554e+01       1.002e+00           0.073           0.046           0.996       1.392e+00         -0.6503
 319       1.290e+01      -1.554e+01       9.324e-01           0.109           0.060           0.992       1.357e+00         -0.4590
 320       1.361e+01      -1.554e+01       8.443e-01           0.137           0.071           0.988       1.243e+00         -0.2962
 321       1.424e+01      -1.554e+01       7.503e-01           0.160           0.078           0.984       1.055e+00         -0.1487
 322       1.475e+01      -1.554e+01       6.636e-01           0.179           0.085           0.980       8.037e-01         -0.0068
 323       1.510e+01      -1.554e+01       5.968e-01           0.193           0.089           0.977       5.033e-01          0.1228
 324       1.529e+01      -1.554e+01       5.563e-01           0.278           0.112           0.954       1.752e-01          0.2555
Strip 13
 325       1.476e+01      -1.369e+01       4.701e-01           0.158           0.010          -0.987       1.939e-01          0.1729
 326       1.456e+01      -1.369e+01       4.515e-01           0.071          -0.015          -0.997       5.648e-01          0.1788
 327       1.417e+01      -1.369e+01       4.244e-01           0.069          -0.016          -0.997       9.046e-01          0.1704
 328       1.362e+01      -1.369e+01       3.870e-01           0.067          -0.016          -0.998       1.192e+00          0.1608
 329       1.294e+01      -1.369e+01       3.421e-01           0.065          -0.017          -0.998       1.410e+00          0.1603
 330       1.217e+01      -1.369e+01       2.935e-01           0.061          -0.019          -0.998       1.546e+00          0.1675
 331       1.134e+01      -1.370e+01       2.474e-01           0.051          -0.022          -0.998       1.591e+00          0.1844
 332       1.052e+01      -1.370e+01       2.111e-01           0.036          -0.029          -0.999       1.544e+00          0.2167
 333       9.743e+00      -1.370e+01       1.902e-01           0.017          -0.039          -0.999       1.408e+00          0.2673
 334       9.060e+00      -1.370e+01       1.924e-01          -0.027          -0.061          -0.998       1.191e+00          0.3560
 335       8.511e+00      -1.370e+01       2.275e-01          -0.112          -0.106          -0.988       9.127e-01          0.5210
 336       8.125e+00      -1.369e+01       3.012e-01          -0.295          -0.206          -0.933       6.029e-01          0.7361
 337       7.927e+00      -1.369e+01       4.131e-01          -0.716          -0.431          -0.550       3.460e-01         -0.0466
 338       7.927e+00      -1.369e+01       5.532e-01          -0.754          -0.416           0.509       3.784e-01         -3.0060
 339       8.125e+00      -1.369e+01       7.019e-01          -0.434          -0.223           0.873       6.465e-01         -2.7354
 340       8.511e+00      -1.369e+01       8.391e-01          -0.256          -0.121           0.959       9.416e-01         -1.8684
 341       9.060e+00      -1.369e+01       9.466e-01          -0.140          -0.058           0.988       1.203e+00         -1.4354
 342       9.743e+00      -1.369e+01       1.009e+00          -0.048          -0.011           0.999       1.408e+00         -1.1347
 343       1.052e+01      -1.369e+01       1.017e+00           0.025           0.024           0.999       1.542e+00         -0.8677
 344       1.134e+01      -1.369e+01       9.757e-01           0.073           0.046           0.996       1.593e+00         -0.6370
 345       1.217e+01      -1.369e+01       9.005e-01           0.109           0.060           0.992       1.553e+00         -0.4499
 346       1.294e+01      -1.369e+01       8.050e-01           0.137           0.071           0.988       1.422e+00         -0.2901
 347       1.362e+01      -1.369e+01       7.032e-01           0.160           0.078           0.984       1.207e+00         -0.1449
 348       1.417e+01      -1.369e+01       6.092e-01           0.179           0.085           0.980       9.198e-01         -0.0047
 349       1.456e+01      -1.369e+01       5.367e-01           0.193           0.089           0.977       5.760e-01          0.1236
 350       1.476e+01      -1.369e+01       4.929e-01           0.278           0.112           0.954       2.005e-01          0.2554
Strip 14
 351       1.420e+01      -1.175e+01       4.016e-01           0.158           0.010          -0.987       2.193e-01          0.1729
 352       1.398e+01      -1.175e+01       3.814e-01           0.071          -0.015          -0.997       6.388e-01          0.1783
 353       1.357e+01      -1.175e+01       3.521e-01           0.069          -0.016          -0.997       1.023e+00          0.1690
 354       1.297e+01      -1.175e+01       3.117e-01           0.067          -0.016          -0.998       1.348e+00          0.1585
 355       1.223e+01      -1.175e+01       2.631e-01           0.065          -0.017          -0.998       1.594e+00          0.1568
 356       1.140e+01      -1.175e+01       2.106e-01           0.061          -0.019          -0.998       1.748e+00          0.1625
 357       1.051e+01      -1.175e+01       1.607e-01           0.051          -0.022          -0.998       1.800e+00          0.1775
 358       9.615e+00      -1.175e+01       1.215e-01           0.036          -0.029          -0.999       1.746e+00          0.2075
 359       8.777e+00      -1.175e+01       9.884e-02           0.017          -0.039          -0.999       1.592e+00          0.2551
 360       8.039e+00      -1.175e+01       1.012e-01          -0.027          -0.061          -0.998       1.348e+00          0.3400
 361       7.444e+00      -1.175e+01       1.392e-01          -0.112          -0.106          -0.988       1.032e+00          0.5021
 362       7.027e+00      -1.175e+01       2.188e-01          -0.295          -0.206          -0.933       6.821e-01          0.7322
 363       6.812e+00      -1.175e+01       3.399e-01          -0.715          -0.431          -0.550       3.915e-01          0.0521
 364       6.812e+00      -1.175e+01       4.914e-01          -0.754          -0.416           0.509       4.278e-01         -2.7917
 365       7.027e+00      -1.175e+01       6.523e-01          -0.434          -0.223           0.873       7.310e-01         -2.6019
 366       7.444e+00      -1.175e+01       8.006e-01          -0.256          -0.121           0.959       1.065e+00         -1.7964
 367       8.039e+00      -1.175e+01       9.170e-01          -0.140          -0.058           0.988       1.360e+00         -1.3894
 368       8.777e+00      -1.175e+01       9.841e-01          -0.048          -0.011           0.999       1.592e+00         -1.1032
 369       9.615e+00      -1.175e+01       9.926e-01           0.025           0.024           0.999       1.744e+00         -0.8460
 370       1.051e+01      -1.175e+01       9.484e-01           0.073           0.046           0.996       1.802e+00         -0.6221
 371       1.140e+01      -1.175e+01       8.671e-01           0.109           0.060           0.992       1.757e+00         -0.4398
 372       1.223e+01      -1.175e+01       7.638e-01           0.137           0.071           0.988       1.609e+00         -0.2834
 373       1.297e+01      -1.175e+01       6.536e-01           0.160           0.078           0.984       1.366e+00         -0.1407
 374       1.357e+01      -1.175e+01       5.520e-01           0.179           0.085           0.980       1.040e+00         -0.0025
 375       1.398e+01      -1.175e+01       4.736e-01           0.193           0.089           0.977       6.515e-01          0.1244
 376       1.420e+01      -1.175e+01       4.261e-01           0.278           0.112           0.954       2.268e-01          0.2553
Strip 15
 377       1.362e+01      -9.724e+00       3.302e-01           0.158           0.010          -0.987       2.453e-01          0.1726
 378       1.339e+01      -9.724e+00       3.084e-01           0.071          -0.015          -0.997       7.143e-01          0.1775
 379       1.294e+01      -9.724e+00       2.768e-01           0.069          -0.016          -0.997       1.144e+00          0.1674
 380       1.230e+01      -9.725e+00       2.332e-01           0.067          -0.016          -0.998       1.507e+00          0.1559
 381       1.150e+01      -9.725e+00       1.808e-01           0.065          -0.017          -0.998       1.783e+00          0.1529
 382       1.060e+01      -9.725e+00       1.242e-01           0.061          -0.019          -0.998       1.955e+00          0.1570
 383       9.635e+00      -9.725e+00       7.034e-02           0.051          -0.022          -0.998       2.012e+00          0.1699
 384       8.675e+00      -9.726e+00       2.806e-02           0.036          -0.029          -0.999       1.953e+00          0.1973
 385       7.771e+00      -9.726e+00       3.672e-03           0.017          -0.039          -0.999       1.781e+00          0.2413
 386       6.974e+00      -9.726e+00       6.193e-03          -0.027          -0.061          -0.998       1.507e+00          0.3218
 387       6.333e+00      -9.726e+00       4.718e-02          -0.112          -0.106          -0.988       1.155e+00          0.4800
 388       5.883e+00      -9.725e+00       1.331e-01          -0.295          -0.206          -0.933       7.630e-01          0.7244
 389       5.652e+00      -9.725e+00       2.636e-01          -0.715          -0.430          -0.551       4.380e-01          0.1551
 390       5.652e+00      -9.724e+00       4.270e-01          -0.754          -0.416           0.508       4.783e-01         -2.5574
 391       5.883e+00      -9.723e+00       6.006e-01          -0.434          -0.223           0.873       8.172e-01         -2.4539
 392       6.333e+00      -9.722e+00       7.606e-01          -0.256          -0.121           0.959       1.190e+00         -1.7160
 393       6.974e+00      -9.721e+00       8.860e-01          -0.140          -0.058           0.988       1.521e+00         -1.3380
 394       7.771e+00      -9.721e+00       9.585e-01          -0.048          -0.011           0.999       1.781e+00         -1.0685
 395       8.675e+00      -9.721e+00       9.676e-01           0.025           0.024           0.999       1.951e+00         -0.8223
 396       9.635e+00      -9.721e+00       9.199e-01           0.073           0.046           0.996       2.015e+00         -0.6062
 397       1.060e+01      -9.722e+00       8.323e-01           0.109           0.060           0.992       1.965e+00         -0.4291
 398       1.150e+01      -9.722e+00       7.209e-01           0.137           0.071           0.988       1.799e+00         -0.2765
 399       1.230e+01      -9.723e+00       6.020e-01           0.160           0.078           0.984       1.527e+00         -0.1366
 400       1.294e+01      -9.723e+00       4.924e-01           0.179           0.084           0.980       1.164e+00         -0.0004
 401       1.339e+01      -9.724e+00       4.079e-01           0.193           0.089           0.977       7.287e-01          0.1249
 402       1.362e+01      -9.724e+00       3.567e-01           0.278           0.112           0.954       2.537e-01          0.2548
Strip 16
 403       1.302e+01      -7.633e+00       2.565e-01           0.158           0.010          -0.987       2.713e-01          0.1721
 404       1.277e+01      -7.633e+00       2.330e-01           0.072          -0.015          -0.997       7.901e-01          0.1765
 405       1.229e+01      -7.633e+00       1.991e-01           0.069          -0.016          -0.997       1.266e+00          0.1655
 406       1.160e+01      -7.633e+00       1.522e-01           0.067          -0.016          -0.998       1.667e+00          0.1529
 407       1.074e+01      -7.634e+00       9.587e-02           0.065          -0.017          -0.998       1.972e+00          0.1487
 408       9.769e+00      -7.634e+00       3.495e-02           0.061          -0.019          -0.998       2.162e+00          0.1510
 409       8.736e+00      -7.634e+00      -2.293e-02           0.051          -0.022          -0.998       2.226e+00          0.1617
 410       7.704e+00      -7.634e+00      -6.840e-02           0.036          -0.029          -0.999       2.160e+00          0.1862
 411       6.731e+00      -7.634e+00      -9.462e-02           0.017          -0.039          -0.999       1.970e+00          0.2262
 412       5.876e+00      -7.634e+00      -9.191e-02          -0.027          -0.061          -0.998       1.667e+00          0.3013
 413       5.186e+00      -7.634e+00      -4.784e-02          -0.112          -0.106          -0.988       1.277e+00          0.4542
 414       4.702e+00      -7.634e+00       4.451e-02          -0.295          -0.206          -0.933       8.442e-01          0.7115
 415       4.454e+00      -7.633e+00       1.849e-01          -0.715          -0.430          -0.551       4.846e-01          0.2628
 416       4.454e+00      -7.633e+00       3.606e-01          -0.754          -0.416           0.508       5.289e-01         -2.2977
 417       4.702e+00      -7.632e+00       5.472e-01          -0.434          -0.223           0.873       9.037e-01         -2.2863
 418       5.186e+00      -7.631e+00       7.192e-01          -0.256          -0.121           0.959       1.317e+00         -1.6243
 419       5.876e+00      -7.631e+00       8.541e-01          -0.140          -0.058           0.988       1.683e+00         -1.2799
 420       6.731e+00      -7.631e+00       9.320e-01          -0.048          -0.011           0.999       1.969e+00         -1.0298
 421       7.704e+00      -7.631e+00       9.418e-01           0.025           0.024           0.999       2.158e+00         -0.7969
 422       8.736e+00      -7.631e+00       8.906e-01           0.073           0.046           0.996       2.229e+00         -0.5899
 423       9.769e+00      -7.631e+00       7.963e-01           0.109           0.060           0.992       2.173e+00         -0.4189
 424       1.074e+01      -7.632e+00       6.765e-01           0.137           0.071           0.988       1.990e+00         -0.2703
 425       1.160e+01      -7.632e+00       5.487e-01           0.160           0.078           0.984       1.690e+00         -0.1331
 426       1.229e+01      -7.632e+00       4.308e-01           0.179           0.084           0.980       1.287e+00          0.0011
 427       1.277e+01      -7.633e+00       3.400e-01           0.193           0.089           0.977       8.061e-01          0.1249
 428       1.302e+01      -7.633e+00       2.849e-01           0.278           0.112           0.954       2.807e-01          0.2538
Strip 17
 429       1.240e+01      -5.490e+00       1.809e-01           0.158           0.010          -0.987       2.969e-01          0.1709
 430       1.214e+01      -5.490e+00       1.558e-01           0.072          -0.015          -0.997       8.646e-01          0.1750
 431       1.162e+01      -5.490e+00       1.194e-01           0.069          -0.016          -0.997       1.385e+00          0.1633
 432       1.088e+01      -5.490e+00       6.913e-02           0.067          -0.016          -0.998       1.825e+00          0.1499
 433       9.964e+00      -5.490e+00       8.783e-03           0.065          -0.017          -0.998       2.158e+00          0.1444
 434       8.921e+00      -5.490e+00      -5.650e-02           0.061          -0.019          -0.998       2.366e+00          0.1451
 435       7.815e+00      -5.490e+00      -1.185e-01           0.051          -0.022          -0.998       2.436e+00          0.1536
 436       6.709e+00      -5.491e+00      -1.673e-01           0.036          -0.029          -0.999       2.364e+00          0.1749
 437       5.666e+00      -5.491e+00      -1.954e-01           0.017          -0.039          -0.999       2.155e+00          0.2103
 438       4.749e+00      -5.491e+00      -1.925e-01          -0.027          -0.061          -0.998       1.824e+00          0.2787
 439       4.010e+00      -5.490e+00      -1.452e-01          -0.112          -0.106          -0.988       1.398e+00          0.4238
 440       3.492e+00      -5.490e+00      -4.626e-02          -0.295          -0.206          -0.933       9.240e-01          0.6918
 441       3.225e+00      -5.490e+00       1.042e-01          -0.715          -0.430          -0.552       5.305e-01          0.3780
 442       3.225e+00      -5.489e+00       2.925e-01          -0.754          -0.416           0.508       5.787e-01         -1.9988
 443       3.492e+00      -5.489e+00       4.925e-01          -0.435          -0.223           0.873       9.887e-01         -2.0876
 444       4.010e+00      -5.489e+00       6.768e-01          -0.256          -0.122           0.959       1.441e+00         -1.5149
 445       4.749e+00      -5.488e+00       8.214e-01          -0.140          -0.058           0.988       1.841e+00         -1.2114
 446       5.666e+00      -5.488e+00       9.049e-01          -0.048          -0.011           0.999       2.155e+00         -0.9860
 447       6.709e+00      -5.488e+00       9.154e-01           0.025           0.024           0.999       2.362e+00         -0.7704
 448       7.815e+00      -5.488e+00       8.604e-01           0.073           0.046           0.996       2.440e+00         -0.5750
 449       8.921e+00      -5.488e+00       7.594e-01           0.109           0.060           0.992       2.379e+00         -0.4112
 450       9.964e+00      -5.489e+00       6.311e-01           0.137           0.071           0.988       2.178e+00         -0.2668
 451       1.088e+01      -5.489e+00       4.941e-01           0.160           0.078           0.984       1.849e+00         -0.1320
 452       1.162e+01      -5.489e+00       3.678e-01           0.179           0.084           0.980       1.409e+00          0.0007
 453       1.214e+01      -5.489e+00       2.704e-01           0.193           0.089           0.977       8.822e-01          0.1237
 454       1.240e+01      -5.490e+00       2.114e-01           0.278           0.112           0.954       3.072e-01          0.2518
Strip 18
 455       1.178e+01      -3.309e+00       1.040e-01           0.158           0.010          -0.987       3.215e-01          0.1689
 456       1.149e+01      -3.309e+00       7.719e-02           0.072          -0.015          -0.997       9.363e-01          0.1728
 457       1.094e+01      -3.309e+00       3.833e-02           0.069          -0.016          -0.997       1.500e+00          0.1607
 458       1.015e+01      -3.309e+00      -1.537e-02           0.067          -0.016          -0.998       1.976e+00          0.1466
 459       9.172e+00      -3.309e+00      -7.982e-02           0.065          -0.017          -0.998       2.337e+00          0.1403
 460       8.059e+00      -3.309e+00      -1.495e-01           0.061          -0.019          -0.998       2.562e+00          0.1399
 461       6.877e+00      -3.309e+00      -2.158e-01           0.051          -0.022          -0.998       2.638e+00          0.1467
 462       5.696e+00      -3.309e+00      -2.678e-01           0.036          -0.029          -0.999       2.560e+00          0.1654
 463       4.583e+00      -3.309e+00      -2.979e-01           0.017          -0.039          -0.999       2.334e+00          0.1958
 464       3.603e+00      -3.309e+00      -2.948e-01          -0.027          -0.061          -0.998       1.976e+00          0.2557
 465       2.814e+00      -3.309e+00      -2.443e-01          -0.112          -0.106          -0.988       1.514e+00          0.3893
 466       2.260e+00      -3.309e+00      -1.386e-01          -0.295          -0.206          -0.933       1.001e+00          0.6633
 467       1.976e+00      -3.309e+00       2.209e-02          -0.714          -0.430          -0.552       5.746e-01          0.5097
 468       1.976e+00      -3.309e+00       2.232e-01          -0.755          -0.416           0.507       6.265e-01         -1.6293
 469       2.260e+00      -3.308e+00       4.368e-01          -0.435          -0.223           0.872       1.070e+00         -1.8296
 470       2.814e+00      -3.308e+00       6.337e-01          -0.256          -0.122           0.959       1.560e+00         -1.3702
 471       3.603e+00      -3.308e+00       7.881e-01          -0.140          -0.058           0.988       1.994e+00         -1.1227
 472       4.583e+00      -3.308e+00       8.773e-01          -0.048          -0.011           0.999       2.334e+00         -0.9336
 473       5.696e+00      -3.308e+00       8.885e-01           0.025           0.024           0.999       2.557e+00         -0.7438
 474       6.877e+00      -3.308e+00       8.298e-01           0.073           0.046           0.996       2.642e+00         -0.5655
 475       8.059e+00      -3.308e+00       7.219e-01           0.109           0.060           0.992       2.576e+00         -0.4113
 476       9.172e+00      -3.308e+00       5.848e-01           0.137           0.071           0.988       2.359e+00         -0.2712
 477       1.015e+01      -3.308e+00       4.386e-01           0.160           0.078           0.984       2.003e+00         -0.1374
 478       1.094e+01      -3.309e+00       3.036e-01           0.179           0.084           0.980       1.526e+00         -0.0041
 479       1.149e+01      -3.309e+00       1.996e-01           0.193           0.089           0.977       9.554e-01          0.1197
 480       1.178e+01      -3.309e+00       1.366e-01           0.278           0.112           0.954       3.327e-01          0.2482
Strip 19
 481       1.115e+01      -1.105e+00       2.630e-02           0.158           0.010          -0.987       3.445e-01          0.1653
 482       1.084e+01      -1.105e+00      -2.226e-03           0.072          -0.015          -0.997       1.003e+00          0.1683
 483       1.026e+01      -1.106e+00      -4.359e-02           0.069          -0.016          -0.997       1.607e+00          0.1548
 484       9.415e+00      -1.106e+00      -1.007e-01           0.067          -0.016          -0.998       2.117e+00          0.1396
 485       8.373e+00      -1.106e+00      -1.693e-01           0.065          -0.017          -0.998       2.505e+00          0.1340
 486       7.188e+00      -1.106e+00      -2.436e-01           0.061          -0.019          -0.998       2.746e+00          0.1353
 487       5.930e+00      -1.106e+00      -3.141e-01           0.051          -0.022          -0.998       2.827e+00          0.1439
 488       4.672e+00      -1.106e+00      -3.695e-01           0.036          -0.029          -0.999       2.743e+00          0.1638
 489       3.488e+00      -1.106e+00      -4.014e-01           0.017          -0.039          -0.999       2.501e+00          0.1932
 490       2.445e+00      -1.106e+00      -3.981e-01          -0.027          -0.061          -0.998       2.117e+00          0.2478
 491       1.605e+00      -1.106e+00      -3.444e-01          -0.112          -0.106          -0.988       1.623e+00          0.3672
 492       1.016e+00      -1.106e+00      -2.319e-01          -0.295          -0.206          -0.933       1.073e+00          0.6262
 493       7.128e-01      -1.106e+00      -6.088e-02          -0.714          -0.430          -0.552       6.159e-01          0.6487
 494       7.128e-01      -1.105e+00       1.532e-01          -0.755          -0.416           0.507       6.713e-01         -1.0903
 495       1.016e+00      -1.105e+00       3.805e-01          -0.435          -0.223           0.872       1.147e+00         -1.3968
 496       1.605e+00      -1.105e+00       5.901e-01          -0.256          -0.122           0.959       1.671e+00         -1.1104
 497       2.445e+00      -1.105e+00       7.545e-01          -0.140          -0.058           0.988       2.136e+00         -0.9826
 498       3.488e+00      -1.105e+00       8.494e-01          -0.048          -0.011           0.999       2.501e+00         -0.8648
 499       4.672e+00      -1.105e+00       8.614e-01           0.025           0.024           0.999       2.741e+00         -0.7229
 500       5.930e+00      -1.105e+00       7.989e-01           0.073           0.046           0.996       2.832e+00         -0.5734
 501       7.188e+00      -1.105e+00       6.840e-01           0.109           0.060           0.992       2.760e+00         -0.4337
 502       8.373e+00      -1.105e+00       5.381e-01           0.137           0.071           0.988       2.528e+00         -0.2988
 503       9.415e+00      -1.105e+00       3.824e-01           0.160           0.078           0.984       2.146e+00         -0.1633
 504       1.026e+01      -1.105e+00       2.388e-01           0.179           0.084           0.980       1.635e+00         -0.0234
 505       1.084e+01      -1.105e+00       1.281e-01           0.193           0.089           0.977       1.024e+00          0.1082
 506       1.115e+01      -1.105e+00       6.102e-02           0.278           0.112           0.954       3.565e-01          0.2411
Strip 20
 507       1.115e+01       1.105e+00       2.630e-02           0.158          -0.010          -0.987       3.445e-01          0.1653
 508       1.084e+01       1.105e+00      -2.226e-03           0.072           0.015          -0.997       1.003e+00          0.1683
 509       1.026e+01       1.106e+00      -4.359e-02           0.069           0.016          -0.997       1.607e+00          0.1548
 510       9.415e+00       1.106e+00      -1.007e-01           0.067           0.016          -0.998       2.117e+00          0.1396
 511       8.373e+00       1.106e+00      -1.693e-01           0.065           0.017          -0.998       2.505e+00          0.1340
 512       7.188e+00       1.106e+00      -2.436e-01           0.061           0.019          -0.998       2.746e+00          0.1353
 513       5.930e+00       1.106e+00      -3.141e-01           0.051           0.022          -0.998       2.827e+00          0.1439
 514       4.672e+00       1.106e+00      -3.695e-01           0.036           0.029          -0.999       2.743e+00          0.1638
 515       3.488e+00       1.106e+00      -4.014e-01           0.017           0.039          -0.999       2.501e+00          0.1932
 516       2.445e+00       1.106e+00      -3.981e-01          -0.027           0.061          -0.998       2.117e+00          0.2478
 517       1.605e+00       1.106e+00      -3.444e-01          -0.112           0.106          -0.988       1.623e+00          0.3672
 518       1.016e+00       1.106e+00      -2.319e-01          -0.295           0.206          -0.933       1.073e+00          0.6262
 519       7.128e-01       1.106e+00      -6.088e-02          -0.714           0.430          -0.552       6.159e-01          0.6487
 520       7.128e-01       1.105e+00       1.532e-01          -0.755           0.416           0.507       6.713e-01         -1.0903
 521       1.016e+00       1.105e+00       3.805e-01          -0.435           0.223           0.872       1.147e+00         -1.3968
 522       1.605e+00       1.105e+00       5.901e-01          -0.256           0.122           0.959       1.671e+00         -1.1104
 523       2.445e+00       1.105e+00       7.545e-01          -0.140           0.058           0.988       2.136e+00         -0.9826
 524       3.488e+00       1.105e+00       8.494e-01          -0.048           0.011           0.999       2.501e+00         -0.8648
 525       4.672e+00       1.105e+00       8.614e-01           0.025          -0.024           0.999       2.741e+00         -0.7229
 526       5.930e+00       1.105e+00       7.989e-01           0.073          -0.046           0.996       2.832e+00         -0.5734
 527       7.188e+00       1.105e+00       6.840e-01           0.109          -0.060           0.992       2.760e+00         -0.4337
 528       8.373e+00       1.105e+00       5.381e-01           0.137          -0.071           0.988       2.528e+00         -0.2988
 529       9.415e+00       1.105e+00       3.824e-01           0.160          -0.078           0.984       2.146e+00         -0.1633
 530       1.026e+01       1.105e+00       2.388e-01           0.179          -0.084           0.980       1.635e+00         -0.0234
 531       1.084e+01       1.105e+00       1.281e-01           0.193          -0.089           0.977       1.024e+00          0.1082
 532       1.115e+01       1.105e+00       6.102e-02           0.278          -0.112           0.954       3.565e-01          0.2411
Strip 21
 533       1.178e+01       3.309e+00       1.040e-01           0.158          -0.010          -0.987       3.215e-01          0.1689
 534       1.149e+01       3.309e+00       7.719e-02           0.072           0.015          -0.997       9.363e-01          0.1728
 535       1.094e+01       3.309e+00       3.833e-02           0.069           0.016          -0.997       1.500e+00          0.1607
 536       1.015e+01       3.309e+00      -1.537e-02           0.067           0.016          -0.998       1.976e+00          0.1466
 537       9.172e+00       3.309e+00      -7.982e-02           0.065           0.017          -0.998       2.337e+00          0.1403
 538       8.059e+00       3.309e+00      -1.495e-01           0.061           0.019          -0.998       2.562e+00          0.1399
 539       6.877e+00       3.309e+00      -2.158e-01           0.051           0.022          -0.998       2.638e+00          0.1467
 540       5.696e+00       3.309e+00      -2.678e-01           0.036           0.029          -0.999       2.560e+00          0.1654
 541       4.583e+00       3.309e+00      -2.979e-01           0.017           0.039          -0.999       2.334e+00          0.1958
 542       3.603e+00       3.309e+00      -2.948e-01          -0.027           0.061          -0.998       1.976e+00          0.2557
 543       2.814e+00       3.309e+00      -2.443e-01          -0.112           0.106          -0.988       1.514e+00          0.3893
 544       2.260e+00       3.309e+00      -1.386e-01          -0.295           0.206          -0.933       1.001e+00          0.6633
 545       1.976e+00       3.309e+00       2.209e-02          -0.714           0.430          -0.552       5.746e-01          0.5097
 546       1.976e+00       3.309e+00       2.232e-01          -0.755           0.416           0.507       6.265e-01         -1.6293
 547       2.260e+00       3.308e+00       4.368e-01          -0.435           0.223           0.872       1.070e+00         -1.8296
 548       2.814e+00       3.308e+00       6.337e-01          -0.256           0.122           0.959       1.560e+00         -1.3702
 549       3.603e+00       3.308e+00       7.881e-01          -0.140           0.058           0.988       1.994e+00         -1.1227
 550       4.583e+00       3.308e+00       8.773e-01          -0.048           0.011           0.999       2.334e+00         -0.9336
 551       5.696e+00       3.308e+00       8.885e-01           0.025          -0.024           0.999       2.557e+00         -0.7438
 552       6.877e+00       3.308e+00       8.298e-01           0.073          -0.046           0.996       2.642e+00         -0.5655
 553       8.059e+00       3.308e+00       7.219e-01           0.109          -0.060           0.992       2.576e+00         -0.4113
 554       9.172e+00       3.308e+00       5.848e-01           0.137          -0.071           0.988       2.359e+00         -0.2712
 555       1.015e+01       3.308e+00       4.386e-01           0.160          -0.078           0.984       2.003e+00         -0.1374
 556       1.094e+01       3.309e+00       3.036e-01           0.179          -0.084           0.980       1.526e+00         -0.0041
 557       1.149e+01       3.309e+00       1.996e-01           0.193          -0.089           0.977       9.554e-01          0.1197
 558       1.178e+01       3.309e+00       1.366e-01           0.278          -0.112           0.954       3.327e-01          0.2482
Strip 22
 559       1.240e+01       5.490e+00       1.809e-01           0.158          -0.010          -0.987       2.969e-01          0.1709
 560       1.214e+01       5.490e+00       1.558e-01           0.072           0.015          -0.997       8.646e-01          0.1750
 561       1.162e+01       5.490e+00       1.194e-01           0.069           0.016          -0.997       1.385e+00          0.1633
 562       1.088e+01       5.490e+00       6.913e-02           0.067           0.016          -0.998       1.825e+00          0.1499
 563       9.964e+00       5.490e+00       8.783e-03           0.065           0.017          -0.998       2.158e+00          0.1444
 564       8.921e+00       5.490e+00      -5.650e-02           0.061           0.019          -0.998       2.366e+00          0.1451
 565       7.815e+00       5.490e+00      -1.185e-01           0.051           0.022          -0.998       2.436e+00          0.1536
 566       6.709e+00       5.491e+00      -1.673e-01           0.036           0.029          -0.999       2.364e+00          0.1749
 567       5.666e+00       5.491e+00      -1.954e-01           0.017           0.039          -0.999       2.155e+00          0.2103
[...]
 852       1.532e+01       2.404e+01       6.880e-01           0.036           0.029          -0.999       4.474e-01          0.2057
 853       1.488e+01       2.404e+01       6.762e-01           0.017           0.039          -0.999       4.078e-01          0.2705
 854       1.449e+01       2.404e+01       6.774e-01          -0.027           0.061          -0.998       3.450e-01          0.3768
 855       1.418e+01       2.404e+01       6.973e-01          -0.112           0.106          -0.988       2.641e-01          0.5554
 856       1.396e+01       2.404e+01       7.390e-01          -0.296           0.207          -0.932       1.742e-01          0.7195
 857       1.385e+01       2.403e+01       8.024e-01          -0.718           0.432          -0.545       9.983e-02         -0.4096
 858       1.385e+01       2.403e+01       8.817e-01          -0.751           0.414           0.515       1.100e-01         -3.6862
 859       1.396e+01       2.403e+01       9.659e-01          -0.432           0.222           0.874       1.879e-01         -3.1292
 860       1.418e+01       2.403e+01       1.044e+00          -0.255           0.121           0.959       2.733e-01         -2.0620
 861       1.449e+01       2.403e+01       1.104e+00          -0.139           0.058           0.989       3.488e-01         -1.5410
 862       1.488e+01       2.403e+01       1.140e+00          -0.048           0.011           0.999       4.079e-01         -1.1900
 863       1.532e+01       2.403e+01       1.144e+00           0.025          -0.024           0.999       4.466e-01         -0.8907
 864       1.579e+01       2.403e+01       1.121e+00           0.073          -0.046           0.996       4.612e-01         -0.6403
 865       1.625e+01       2.403e+01       1.078e+00           0.109          -0.060           0.992       4.495e-01         -0.4435
 866       1.669e+01       2.403e+01       1.024e+00           0.137          -0.071           0.988       4.116e-01         -0.2810
 867       1.708e+01       2.403e+01       9.666e-01           0.160          -0.079           0.984       3.494e-01         -0.1373
 868       1.739e+01       2.403e+01       9.134e-01           0.179          -0.085           0.980       2.662e-01         -0.0005
 869       1.761e+01       2.403e+01       8.724e-01           0.193          -0.089           0.977       1.667e-01          0.1236
 870       1.772e+01       2.403e+01       8.475e-01           0.279          -0.113           0.954       5.801e-02          0.2552
Strip 34
 871       1.798e+01       2.492e+01       8.660e-01           0.158          -0.010          -0.987       4.347e-02          0.1418
 872       1.787e+01       2.492e+01       8.561e-01           0.071           0.015          -0.997       1.265e-01          0.1412
 873       1.767e+01       2.492e+01       8.418e-01           0.069           0.016          -0.997       2.027e-01          0.1228
 874       1.738e+01       2.492e+01       8.220e-01           0.067           0.016          -0.998       2.670e-01          0.1055
 875       1.701e+01       2.492e+01       7.983e-01           0.065           0.017          -0.998       3.159e-01          0.1005
 876       1.660e+01       2.492e+01       7.726e-01           0.061           0.019          -0.998       3.463e-01          0.1071
 877       1.617e+01       2.492e+01       7.482e-01           0.051           0.022          -0.998       3.565e-01          0.1279
 878       1.573e+01       2.492e+01       7.290e-01           0.036           0.029          -0.999       3.459e-01          0.1698
 879       1.532e+01       2.493e+01       7.180e-01           0.017           0.039          -0.999       3.153e-01          0.2359
 880       1.496e+01       2.493e+01       7.191e-01          -0.027           0.061          -0.998       2.668e-01          0.3453
 881       1.467e+01       2.492e+01       7.377e-01          -0.112           0.106          -0.988       2.042e-01          0.5294
 882       1.447e+01       2.492e+01       7.766e-01          -0.296           0.207          -0.932       1.346e-01          0.7137
 883       1.436e+01       2.492e+01       8.358e-01          -0.719           0.432          -0.544       7.714e-02         -0.3380
 884       1.436e+01       2.492e+01       9.099e-01          -0.750           0.414           0.516       8.510e-02         -3.5268
 885       1.447e+01       2.492e+01       9.886e-01          -0.432           0.222           0.874       1.454e-01         -3.0223
 886       1.467e+01       2.492e+01       1.061e+00          -0.255           0.121           0.959       2.114e-01         -1.9915
 887       1.496e+01       2.491e+01       1.118e+00          -0.139           0.058           0.989       2.698e-01         -1.4822
 888       1.532e+01       2.491e+01       1.151e+00          -0.048           0.011           0.999       3.154e-01         -1.1367
 889       1.573e+01       2.491e+01       1.155e+00           0.025          -0.024           0.999       3.453e-01         -0.8426
 890       1.617e+01       2.491e+01       1.133e+00           0.073          -0.046           0.996       3.566e-01         -0.5992
 891       1.660e+01       2.491e+01       1.094e+00           0.109          -0.060           0.992       3.475e-01         -0.4112
 892       1.701e+01       2.492e+01       1.043e+00           0.137          -0.071           0.988       3.182e-01         -0.2587
 893       1.738e+01       2.492e+01       9.892e-01           0.160          -0.079           0.984       2.701e-01         -0.1249
 894       1.767e+01       2.492e+01       9.395e-01           0.179          -0.085           0.980       2.058e-01          0.0032
 895       1.787e+01       2.492e+01       9.012e-01           0.193          -0.089           0.977       1.289e-01          0.1202
 896       1.798e+01       2.492e+01       8.780e-01           0.279          -0.113           0.954       4.485e-02          0.2494
Strip 35
 897       1.818e+01       2.564e+01       8.913e-01           0.158          -0.010          -0.987       3.219e-02          0.1069
 898       1.808e+01       2.564e+01       8.820e-01           0.071           0.015          -0.997       9.368e-02          0.1023
 899       1.789e+01       2.564e+01       8.685e-01           0.069           0.016          -0.997       1.501e-01          0.0781
 900       1.762e+01       2.564e+01       8.498e-01           0.067           0.016          -0.998       1.977e-01          0.0571
 901       1.728e+01       2.564e+01       8.274e-01           0.065           0.017          -0.998       2.339e-01          0.0493
 902       1.689e+01       2.564e+01       8.032e-01           0.061           0.019          -0.998       2.564e-01          0.0529
 903       1.648e+01       2.564e+01       7.802e-01           0.051           0.022          -0.998       2.639e-01          0.0700
 904       1.607e+01       2.564e+01       7.621e-01           0.036           0.029          -0.999       2.561e-01          0.1084
 905       1.568e+01       2.564e+01       7.517e-01           0.017           0.039          -0.999       2.335e-01          0.1733
 906       1.534e+01       2.564e+01       7.528e-01          -0.027           0.061          -0.998       1.975e-01          0.2856
 907       1.506e+01       2.564e+01       7.703e-01          -0.112           0.106          -0.988       1.511e-01          0.4785
 908       1.487e+01       2.564e+01       8.070e-01          -0.297           0.207          -0.932       9.962e-02          0.6977
 909       1.477e+01       2.564e+01       8.629e-01          -0.719           0.433          -0.544       5.708e-02         -0.2144
 910       1.477e+01       2.564e+01       9.327e-01          -0.750           0.413           0.516       6.304e-02         -3.2479
 911       1.487e+01       2.564e+01       1.007e+00          -0.432           0.222           0.874       1.077e-01         -2.8359
 912       1.506e+01       2.563e+01       1.075e+00          -0.255           0.121           0.959       1.566e-01         -1.8680
 913       1.534e+01       2.563e+01       1.129e+00          -0.139           0.058           0.989       1.998e-01         -1.3799
 914       1.568e+01       2.563e+01       1.160e+00          -0.048           0.011           0.999       2.335e-01         -1.0462
 915       1.607e+01       2.563e+01       1.164e+00           0.025          -0.024           0.999       2.556e-01         -0.7659
 916       1.648e+01       2.563e+01       1.143e+00           0.073          -0.046           0.996       2.640e-01         -0.5404
 917       1.689e+01       2.563e+01       1.106e+00           0.109          -0.060           0.992       2.573e-01         -0.3721
 918       1.728e+01       2.563e+01       1.058e+00           0.137          -0.071           0.988       2.356e-01         -0.2390
 919       1.762e+01       2.564e+01       1.008e+00           0.160          -0.079           0.984       1.999e-01         -0.1228
 920       1.789e+01       2.564e+01       9.607e-01           0.179          -0.085           0.980       1.523e-01         -0.0089
 921       1.808e+01       2.564e+01       9.245e-01           0.193          -0.089           0.977       9.538e-02          0.0977
 922       1.818e+01       2.564e+01       9.026e-01           0.279          -0.113           0.954       3.319e-02          0.2238
Strip 36
 923       1.834e+01       2.618e+01       9.104e-01           0.158          -0.010          -0.987       2.210e-02          0.0055
 924       1.824e+01       2.618e+01       9.016e-01           0.071           0.015          -0.997       6.431e-02         -0.0029
 925       1.806e+01       2.618e+01       8.887e-01           0.069           0.016          -0.997       1.030e-01         -0.0295
 926       1.780e+01       2.618e+01       8.709e-01           0.067           0.016          -0.998       1.357e-01         -0.0472
 927       1.747e+01       2.618e+01       8.495e-01           0.065           0.017          -0.998       1.605e-01         -0.0492
 928       1.710e+01       2.618e+01       8.264e-01           0.061           0.019          -0.998       1.760e-01         -0.0406
 929       1.671e+01       2.619e+01       8.044e-01           0.051           0.022          -0.998       1.812e-01         -0.0216
 930       1.632e+01       2.619e+01       7.872e-01           0.036           0.029          -0.999       1.758e-01          0.0131
 931       1.595e+01       2.619e+01       7.772e-01           0.017           0.039          -0.999       1.603e-01          0.0696
 932       1.562e+01       2.619e+01       7.782e-01          -0.027           0.061          -0.998       1.356e-01          0.1752
 933       1.536e+01       2.619e+01       7.950e-01          -0.112           0.106          -0.988       1.037e-01          0.3753
 934       1.518e+01       2.618e+01       8.300e-01          -0.297           0.207          -0.932       6.836e-02          0.6457
 935       1.508e+01       2.618e+01       8.833e-01          -0.720           0.433          -0.543       3.916e-02         -0.0544
 936       1.508e+01       2.618e+01       9.500e-01          -0.750           0.413           0.517       4.329e-02         -2.8422
 937       1.518e+01       2.618e+01       1.021e+00          -0.432           0.222           0.874       7.396e-02         -2.5565
 938       1.536e+01       2.618e+01       1.086e+00          -0.255           0.121           0.959       1.075e-01         -1.6756
 939       1.562e+01       2.617e+01       1.137e+00          -0.139           0.058           0.989       1.371e-01         -1.2213
 940       1.595e+01       2.617e+01       1.167e+00          -0.048           0.011           0.999       1.603e-01         -0.9160
 941       1.632e+01       2.617e+01       1.171e+00           0.025          -0.024           0.999       1.755e-01         -0.6731
 942       1.671e+01       2.617e+01       1.151e+00           0.073          -0.046           0.996       1.812e-01         -0.4892
 943       1.710e+01       2.617e+01       1.115e+00           0.109          -0.060           0.992       1.766e-01         -0.3615
 944       1.747e+01       2.618e+01       1.070e+00           0.137          -0.071           0.988       1.617e-01         -0.2655
 945       1.780e+01       2.618e+01       1.021e+00           0.160          -0.079           0.984       1.372e-01         -0.1808
 946       1.806e+01       2.618e+01       9.766e-01           0.179          -0.085           0.980       1.045e-01         -0.0916
 947       1.824e+01       2.618e+01       9.421e-01           0.193          -0.089           0.977       6.546e-02         -0.0018
 948       1.834e+01       2.618e+01       9.213e-01           0.279          -0.113           0.954       2.278e-02          0.1217
Strip 37
 949       1.844e+01       2.655e+01       9.233e-01           0.158          -0.010          -0.987       1.289e-02         -0.4569
 950       1.835e+01       2.655e+01       9.147e-01           0.071           0.015          -0.997       3.752e-02         -0.4384
 951       1.817e+01       2.655e+01       9.022e-01           0.069           0.016          -0.997       6.010e-02         -0.3998
 952       1.792e+01       2.655e+01       8.850e-01           0.067           0.016          -0.998       7.919e-02         -0.3373
 953       1.760e+01       2.655e+01       8.643e-01           0.065           0.017          -0.998       9.367e-02         -0.2701
 954       1.725e+01       2.655e+01       8.419e-01           0.061           0.019          -0.998       1.027e-01         -0.2118
 955       1.687e+01       2.655e+01       8.206e-01           0.051           0.022          -0.998       1.057e-01         -0.1620
 956       1.649e+01       2.655e+01       8.039e-01           0.036           0.029          -0.999       1.026e-01         -0.1137
 957       1.613e+01       2.655e+01       7.943e-01           0.017           0.039          -0.999       9.350e-02         -0.0617
 958       1.581e+01       2.655e+01       7.953e-01          -0.027           0.061          -0.998       7.908e-02          0.0160
 959       1.556e+01       2.655e+01       8.115e-01          -0.112           0.106          -0.988       6.051e-02          0.1785
 960       1.538e+01       2.655e+01       8.454e-01          -0.297           0.207          -0.932       3.987e-02          0.4719
 961       1.529e+01       2.655e+01       8.970e-01          -0.720           0.433          -0.543       2.284e-02          0.0471
 962       1.529e+01       2.654e+01       9.615e-01          -0.749           0.413           0.518       2.526e-02         -2.3229
 963       1.538e+01       2.654e+01       1.030e+00          -0.432           0.221           0.874       4.316e-02         -2.1638
 964       1.556e+01       2.654e+01       1.093e+00          -0.255           0.121           0.959       6.274e-02         -1.3915
 965       1.581e+01       2.654e+01       1.143e+00          -0.139           0.058           0.989       8.003e-02         -1.0082
 966       1.613e+01       2.654e+01       1.171e+00          -0.048           0.011           0.999       9.354e-02         -0.7775
 967       1.649e+01       2.654e+01       1.175e+00           0.025          -0.024           0.999       1.024e-01         -0.6099
 968       1.687e+01       2.654e+01       1.156e+00           0.073          -0.046           0.996       1.057e-01         -0.5002
 969       1.725e+01       2.654e+01       1.122e+00           0.109          -0.060           0.992       1.030e-01         -0.4516
 970       1.760e+01       2.654e+01       1.078e+00           0.137          -0.071           0.988       9.432e-02         -0.4495
 971       1.792e+01       2.654e+01       1.031e+00           0.160          -0.079           0.984       8.006e-02         -0.4795
 972       1.817e+01       2.654e+01       9.873e-01           0.179          -0.085           0.980       6.099e-02         -0.5127
 973       1.835e+01       2.654e+01       9.540e-01           0.193          -0.089           0.977       3.819e-02         -0.5180
 974       1.844e+01       2.655e+01       9.337e-01           0.279          -0.113           0.954       1.329e-02         -0.4169
Strip 38
 975       1.849e+01       2.673e+01       9.297e-01           0.158          -0.010          -0.987       4.236e-03         -1.1072
 976       1.840e+01       2.673e+01       9.213e-01           0.071           0.015          -0.997       1.233e-02         -1.0452
 977       1.823e+01       2.673e+01       9.090e-01           0.069           0.016          -0.997       1.975e-02         -0.9019
 978       1.798e+01       2.673e+01       8.920e-01           0.067           0.016          -0.998       2.602e-02         -0.7053
 979       1.767e+01       2.673e+01       8.717e-01           0.065           0.017          -0.998       3.077e-02         -0.5232
 980       1.732e+01       2.673e+01       8.497e-01           0.061           0.019          -0.998       3.374e-02         -0.3836
 981       1.695e+01       2.673e+01       8.288e-01           0.051           0.022          -0.998       3.473e-02         -0.2840
 982       1.657e+01       2.673e+01       8.124e-01           0.036           0.029          -0.999       3.370e-02         -0.2095
 983       1.622e+01       2.673e+01       8.029e-01           0.017           0.039          -0.999       3.072e-02         -0.1466
 984       1.591e+01       2.673e+01       8.039e-01          -0.027           0.061          -0.998       2.598e-02         -0.0776
 985       1.566e+01       2.673e+01       8.198e-01          -0.112           0.106          -0.988       1.988e-02          0.0438
 986       1.549e+01       2.673e+01       8.532e-01          -0.297           0.207          -0.932       1.310e-02          0.2982
 987       1.540e+01       2.673e+01       9.039e-01          -0.720           0.433          -0.542       7.503e-03          0.1592
 988       1.540e+01       2.673e+01       9.673e-01          -0.749           0.413           0.518       8.302e-03         -1.7062
 989       1.549e+01       2.672e+01       1.035e+00          -0.431           0.221           0.875       1.418e-02         -1.7174
 990       1.566e+01       2.672e+01       1.097e+00          -0.255           0.121           0.959       2.061e-02         -1.1070
 991       1.591e+01       2.672e+01       1.146e+00          -0.139           0.058           0.989       2.629e-02         -0.8258
 992       1.622e+01       2.672e+01       1.174e+00          -0.048           0.011           0.999       3.073e-02         -0.6716
 993       1.657e+01       2.672e+01       1.177e+00           0.025          -0.024           0.999       3.364e-02         -0.5665
 994       1.695e+01       2.672e+01       1.159e+00           0.073          -0.046           0.996       3.473e-02         -0.5124
 995       1.732e+01       2.672e+01       1.125e+00           0.109          -0.060           0.992       3.384e-02         -0.5197
 996       1.767e+01       2.672e+01       1.081e+00           0.137          -0.071           0.988       3.099e-02         -0.5891
 997       1.798e+01       2.672e+01       1.035e+00           0.160          -0.079           0.984       2.630e-02         -0.7262
 998       1.823e+01       2.673e+01       9.927e-01           0.179          -0.085           0.980       2.004e-02         -0.9113
 999       1.840e+01       2.673e+01       9.599e-01           0.193          -0.089           0.977       1.255e-02         -1.0873
1000       1.849e+01       2.673e+01       9.400e-01           0.279          -0.113           0.954       4.366e-03         -1.0638










