xflr5 v6.47

Plane Name
T1-10.0 m/s-Panel-Inviscid
QInf  =   10.000000 m/s
Alpha =    0.000000
Beta  =    0.000°
Phi   =    0.000°
Ctrl  =    0.000
CL    =    0.167508
Cy    =   -0.000000
Cd    =    0.001151     ICd   =    0.001151     PCd   =    0.000000
Cl   = 1.34455e-16
Cm   =   -0.225563
ICn   =    0.000000     PCn   =    0.000000 
XCP   =   10.421664     YCP   =   -0.000000     ZCP   =    1.370648  
XNP   =    0.000000
Bending = 20244.393674

Main Wing
  y-span        Chord      Ai         Cl        PCd          ICd        CmGeom    CmAirf@chord/4    XTrtop    XTrBot      XCP       BM
  -26.7442     3.1433    -1.724    0.062065    0.000000    0.001868   -0.395465   -0.016381     0.0000    0.0000    0.4704    0.0000
  -26.5616     3.1963    -1.258    0.101615    0.000000    0.002231   -0.550556   -0.026492     0.0000    0.0000    0.5030    0.2045
  -26.1974     3.3021    -1.001    0.135599    0.000000    0.002370   -0.661010   -0.031529     0.0000    0.0000    0.4895    2.6439
  -25.6543     3.4598    -0.786    0.160108    0.000000    0.002197   -0.736190   -0.036633     0.0000    0.0000    0.4851   13.2124
  -24.9360     3.6684    -0.617    0.175973    0.000000    0.001895   -0.753254   -0.040112     0.0000    0.0000    0.4828   42.9592
  -24.0473     3.9265    -0.496    0.185210    0.000000    0.001603   -0.725535   -0.042172     0.0000    0.0000    0.4817   108.7203
  -22.9944     4.2323    -0.416    0.189793    0.000000    0.001379   -0.670845   -0.043321     0.0000    0.0000    0.4819   233.3409
  -21.7844     4.5837    -0.368    0.191229    0.000000    0.001229   -0.603082   -0.043950     0.0000    0.0000    0.4835   445.6454
  -20.4256     4.9783    -0.342    0.190537    0.000000    0.001138   -0.531376   -0.044284     0.0000    0.0000    0.4863   780.1720
  -18.9272     5.4134    -0.332    0.188382    0.000000    0.001090   -0.461213   -0.044451     0.0000    0.0000    0.4903   1276.6100
  -17.2996     5.8861    -0.332    0.185177    0.000000    0.001072   -0.395584   -0.044520     0.0000    0.0000    0.4953   1978.8769
  -15.5537     6.3931    -0.339    0.181173    0.000000    0.001072   -0.335921   -0.044530     0.0000    0.0000    0.5013   2933.7792
  -13.7017     6.9309    -0.351    0.176515    0.000000    0.001082   -0.282712   -0.044504     0.0000    0.0000    0.5085   4189.2398
  -11.7560     7.4960    -0.366    0.171269    0.000000    0.001095   -0.235910   -0.044460     0.0000    0.0000    0.5171   5792.1132
   -9.7301     8.0843    -0.383    0.165449    0.000000    0.001106   -0.195195   -0.044416     0.0000    0.0000    0.5272   7785.6398
   -7.6376     8.6920    -0.398    0.159022    0.000000    0.001106   -0.160133   -0.044404     0.0000    0.0000    0.5397   10206.6335
   -5.4930     9.3148    -0.409    0.151919    0.000000    0.001086   -0.130302   -0.044487     0.0000    0.0000    0.5556   13082.5257
   -3.3109     9.9485    -0.407    0.144053    0.000000    0.001024   -0.105383   -0.044813     0.0000    0.0000    0.5772   16428.4198
   -1.1062    10.5888    -0.373    0.135399    0.000000    0.000884   -0.085422   -0.045637     0.0000    0.0000    0.6072   20244.3937
    1.1062    10.5888    -0.373    0.135399    0.000000    0.000884   -0.085422   -0.045637     0.0000    0.0000    0.6072   20244.3937
    3.3109     9.9485    -0.407    0.144053    0.000000    0.001024   -0.105383   -0.044813     0.0000    0.0000    0.5772   16428.4198
    5.4930     9.3148    -0.409    0.151919    0.000000    0.001086   -0.130302   -0.044487     0.0000    0.0000    0.5556   13082.5257
    7.6376     8.6920    -0.398    0.159022    0.000000    0.001106   -0.160133   -0.044404     0.0000    0.0000    0.5397   10206.6335
    9.7301     8.0843    -0.383    0.165449    0.000000    0.001106   -0.195195   -0.044416     0.0000    0.0000    0.5272   7785.6398
   11.7560     7.4960    -0.366    0.171269    0.000000    0.001095   -0.235910   -0.044460     0.0000    0.0000    0.5171   5792.1132
   13.7017     6.9309    -0.351    0.176515    0.000000    0.001082   -0.282712   -0.044504     0.0000    0.0000    0.5085   4189.2398
   15.5537     6.3931    -0.339    0.181173    0.000000    0.001072   -0.335921   -0.044530     0.0000    0.0000    0.5013   2933.7792
   17.2996     5.8861    -0.332    0.185177    0.000000    0.001072   -0.395584   -0.044520     0.0000    0.0000    0.4953   1978.8769
   18.9272     5.4134    -0.332    0.188382    0.000000    0.001090   -0.461213   -0.044451     0.0000    0.0000    0.4903   1276.6100
   20.4256     4.9783    -0.342    0.190537    0.000000    0.001138   -0.531376   -0.044284     0.0000    0.0000    0.4863   780.1720
   21.7844     4.5837    -0.368    0.191229    0.000000    0.001229   -0.603082   -0.043950     0.0000    0.0000    0.4835   445.6454
   22.9944     4.2323    -0.416    0.189793    0.000000    0.001379   -0.670845   -0.043321     0.0000    0.0000    0.4819   233.3409
   24.0473     3.9265    -0.496    0.185210    0.000000    0.001603   -0.725535   -0.042172     0.0000    0.0000    0.4817   108.7203
   24.9360     3.6684    -0.617    0.175973    0.000000    0.001895   -0.753254   -0.040112     0.0000    0.0000    0.4828   42.9592
   25.6543     3.4598    -0.786    0.160108    0.000000    0.002197   -0.736190   -0.036633     0.0000    0.0000    0.4851   13.2124
   26.1974     3.3021    -1.001    0.135599    0.000000    0.002370   -0.661010   -0.031529     0.0000    0.0000    0.4895    2.6439
   26.5616     3.1963    -1.258    0.101615    0.000000    0.002231   -0.550556   -0.026492     0.0000    0.0000    0.5030    0.2045
   26.7442     3.1433    -1.724    0.062065    0.000000    0.001868   -0.395465   -0.016381     0.0000    0.0000    0.4704    0.0000


Main Wing Cp Coefficients
 Panel     CtrlPt.x        CtrlPt.y        CtrlPt.z       Nx      Ny       Nz        Area       Cp
Main WingCp Coefficients
Strip 1
  13       1.849e+01      -2.673e+01       9.297e-01           0.158           0.010          -0.987       4.236e-03          0.0764
  14       1.840e+01      -2.673e+01       9.213e-01           0.071          -0.015          -0.997       1.233e-02          0.0446
  15       1.823e+01      -2.673e+01       9.090e-01           0.069          -0.016          -0.997       1.975e-02          0.0208
  16       1.798e+01      -2.673e+01       8.920e-01           0.067          -0.016          -0.998       2.602e-02          0.0002
  17       1.767e+01      -2.673e+01       8.717e-01           0.065          -0.017          -0.998       3.077e-02         -0.0175
  18       1.732e+01      -2.673e+01       8.497e-01           0.061          -0.019          -0.998       3.374e-02         -0.0358
  19       1.695e+01      -2.673e+01       8.288e-01           0.051          -0.022          -0.998       3.473e-02         -0.0566
  20       1.657e+01      -2.673e+01       8.124e-01           0.036          -0.029          -0.999       3.370e-02         -0.0801
  21       1.622e+01      -2.673e+01       8.029e-01           0.017          -0.039          -0.999       3.072e-02         -0.1154
  22       1.591e+01      -2.673e+01       8.039e-01          -0.027          -0.061          -0.998       2.598e-02         -0.1736
  23       1.566e+01      -2.673e+01       8.198e-01          -0.112          -0.106          -0.988       1.988e-02         -0.2622
  24       1.549e+01      -2.673e+01       8.532e-01          -0.297          -0.207          -0.932       1.310e-02         -0.3488
  25       1.540e+01      -2.673e+01       9.039e-01          -0.720          -0.433          -0.542       7.503e-03          0.2462
  26       1.540e+01      -2.673e+01       9.673e-01          -0.749          -0.413           0.518       8.302e-03          0.3376
  27       1.549e+01      -2.672e+01       1.035e+00          -0.431          -0.221           0.875       1.418e-02         -0.2326
  28       1.566e+01      -2.672e+01       1.097e+00          -0.255          -0.121           0.959       2.061e-02         -0.3080
  29       1.591e+01      -2.672e+01       1.146e+00          -0.139          -0.058           0.989       2.629e-02         -0.2949
  30       1.622e+01      -2.672e+01       1.174e+00          -0.048          -0.011           0.999       3.073e-02         -0.2622
  31       1.657e+01      -2.672e+01       1.177e+00           0.025           0.024           0.999       3.364e-02         -0.2140
  32       1.695e+01      -2.672e+01       1.159e+00           0.073           0.046           0.996       3.473e-02         -0.1628
  33       1.732e+01      -2.672e+01       1.125e+00           0.109           0.060           0.992       3.384e-02         -0.1200
  34       1.767e+01      -2.672e+01       1.081e+00           0.137           0.071           0.988       3.099e-02         -0.0818
  35       1.798e+01      -2.672e+01       1.035e+00           0.160           0.079           0.984       2.630e-02         -0.0450
  36       1.823e+01      -2.673e+01       9.927e-01           0.179           0.085           0.980       2.004e-02         -0.0071
  37       1.840e+01      -2.673e+01       9.599e-01           0.193           0.089           0.977       1.255e-02          0.0262
  38       1.849e+01      -2.673e+01       9.400e-01           0.279           0.113           0.954       4.366e-03          0.0904
Strip 2
  39       1.844e+01      -2.655e+01       9.233e-01           0.158           0.010          -0.987       1.289e-02          0.1452
  40       1.835e+01      -2.655e+01       9.147e-01           0.071          -0.015          -0.997       3.752e-02          0.1044
  41       1.817e+01      -2.655e+01       9.022e-01           0.069          -0.016          -0.997       6.010e-02          0.0651
  42       1.792e+01      -2.655e+01       8.850e-01           0.067          -0.016          -0.998       7.919e-02          0.0293
  43       1.760e+01      -2.655e+01       8.643e-01           0.065          -0.017          -0.998       9.367e-02          0.0005
  44       1.725e+01      -2.655e+01       8.419e-01           0.061          -0.019          -0.998       1.027e-01         -0.0281
  45       1.687e+01      -2.655e+01       8.206e-01           0.051          -0.022          -0.998       1.057e-01         -0.0592
  46       1.649e+01      -2.655e+01       8.039e-01           0.036          -0.029          -0.999       1.026e-01         -0.0938
  47       1.613e+01      -2.655e+01       7.943e-01           0.017          -0.039          -0.999       9.350e-02         -0.1458
  48       1.581e+01      -2.655e+01       7.953e-01          -0.027          -0.061          -0.998       7.908e-02         -0.2277
  49       1.556e+01      -2.655e+01       8.115e-01          -0.112          -0.106          -0.988       6.051e-02         -0.3316
  50       1.538e+01      -2.655e+01       8.454e-01          -0.297          -0.207          -0.932       3.987e-02         -0.3897
  51       1.529e+01      -2.655e+01       8.970e-01          -0.720          -0.433          -0.543       2.284e-02          0.2784
  52       1.529e+01      -2.654e+01       9.615e-01          -0.749          -0.413           0.518       2.526e-02          0.4180
  53       1.538e+01      -2.654e+01       1.030e+00          -0.432          -0.221           0.874       4.316e-02         -0.2171
  54       1.556e+01      -2.654e+01       1.093e+00          -0.255          -0.121           0.959       6.274e-02         -0.3721
  55       1.581e+01      -2.654e+01       1.143e+00          -0.139          -0.058           0.989       8.003e-02         -0.3832
  56       1.613e+01      -2.654e+01       1.171e+00          -0.048          -0.011           0.999       9.354e-02         -0.3440
  57       1.649e+01      -2.654e+01       1.175e+00           0.025           0.024           0.999       1.024e-01         -0.2780
  58       1.687e+01      -2.654e+01       1.156e+00           0.073           0.046           0.996       1.057e-01         -0.2081
  59       1.725e+01      -2.654e+01       1.122e+00           0.109           0.060           0.992       1.030e-01         -0.1511
  60       1.760e+01      -2.654e+01       1.078e+00           0.137           0.071           0.988       9.432e-02         -0.1018
  61       1.792e+01      -2.654e+01       1.031e+00           0.160           0.079           0.984       8.006e-02         -0.0529
  62       1.817e+01      -2.654e+01       9.873e-01           0.179           0.085           0.980       6.099e-02          0.0046
  63       1.835e+01      -2.654e+01       9.540e-01           0.193           0.089           0.977       3.819e-02          0.0687
  64       1.844e+01      -2.655e+01       9.337e-01           0.279           0.113           0.954       1.329e-02          0.1496
Strip 3
  65       1.834e+01      -2.618e+01       9.104e-01           0.158           0.010          -0.987       2.210e-02          0.1747
  66       1.824e+01      -2.618e+01       9.016e-01           0.071          -0.015          -0.997       6.431e-02          0.1322
  67       1.806e+01      -2.618e+01       8.887e-01           0.069          -0.016          -0.997       1.030e-01          0.0887
  68       1.780e+01      -2.618e+01       8.709e-01           0.067          -0.016          -0.998       1.357e-01          0.0453
  69       1.747e+01      -2.618e+01       8.495e-01           0.065          -0.017          -0.998       1.605e-01          0.0091
  70       1.710e+01      -2.618e+01       8.264e-01           0.061          -0.019          -0.998       1.760e-01         -0.0267
  71       1.671e+01      -2.619e+01       8.044e-01           0.051          -0.022          -0.998       1.812e-01         -0.0661
  72       1.632e+01      -2.619e+01       7.872e-01           0.036          -0.029          -0.999       1.758e-01         -0.1108
  73       1.595e+01      -2.619e+01       7.772e-01           0.017          -0.039          -0.999       1.603e-01         -0.1726
  74       1.562e+01      -2.619e+01       7.782e-01          -0.027          -0.061          -0.998       1.356e-01         -0.2545
  75       1.536e+01      -2.619e+01       7.950e-01          -0.112          -0.106          -0.988       1.037e-01         -0.3381
  76       1.518e+01      -2.618e+01       8.300e-01          -0.297          -0.207          -0.932       6.836e-02         -0.3612
  77       1.508e+01      -2.618e+01       8.833e-01          -0.720          -0.433          -0.543       3.916e-02          0.3390
  78       1.508e+01      -2.618e+01       9.500e-01          -0.750          -0.413           0.517       4.329e-02          0.4901
  79       1.518e+01      -2.618e+01       1.021e+00          -0.432          -0.222           0.874       7.396e-02         -0.1808
  80       1.536e+01      -2.618e+01       1.086e+00          -0.255          -0.121           0.959       1.075e-01         -0.3882
  81       1.562e+01      -2.617e+01       1.137e+00          -0.139          -0.058           0.989       1.371e-01         -0.4433
  82       1.595e+01      -2.617e+01       1.167e+00          -0.048          -0.011           0.999       1.603e-01         -0.4204
  83       1.632e+01      -2.617e+01       1.171e+00           0.025           0.024           0.999       1.755e-01         -0.3470
  84       1.671e+01      -2.617e+01       1.151e+00           0.073           0.046           0.996       1.812e-01         -0.2604
  85       1.710e+01      -2.617e+01       1.115e+00           0.109           0.060           0.992       1.766e-01         -0.1853
  86       1.747e+01      -2.618e+01       1.070e+00           0.137           0.071           0.988       1.617e-01         -0.1177
  87       1.780e+01      -2.618e+01       1.021e+00           0.160           0.079           0.984       1.372e-01         -0.0495
  88       1.806e+01      -2.618e+01       9.766e-01           0.179           0.085           0.980       1.045e-01          0.0272
  89       1.824e+01      -2.618e+01       9.421e-01           0.193           0.089           0.977       6.546e-02          0.1056
  90       1.834e+01      -2.618e+01       9.213e-01           0.279           0.113           0.954       2.278e-02          0.1897
Strip 4
  91       1.818e+01      -2.564e+01       8.913e-01           0.158           0.010          -0.987       3.219e-02          0.1824
  92       1.808e+01      -2.564e+01       8.820e-01           0.071          -0.015          -0.997       9.368e-02          0.1407
  93       1.789e+01      -2.564e+01       8.685e-01           0.069          -0.016          -0.997       1.501e-01          0.0976
  94       1.762e+01      -2.564e+01       8.498e-01           0.067          -0.016          -0.998       1.977e-01          0.0517
  95       1.728e+01      -2.564e+01       8.274e-01           0.065          -0.017          -0.998       2.339e-01          0.0114
  96       1.689e+01      -2.564e+01       8.032e-01           0.061          -0.019          -0.998       2.564e-01         -0.0291
  97       1.648e+01      -2.564e+01       7.802e-01           0.051          -0.022          -0.998       2.639e-01         -0.0732
  98       1.607e+01      -2.564e+01       7.621e-01           0.036          -0.029          -0.999       2.561e-01         -0.1206
  99       1.568e+01      -2.564e+01       7.517e-01           0.017          -0.039          -0.999       2.335e-01         -0.1804
 100       1.534e+01      -2.564e+01       7.528e-01          -0.027          -0.061          -0.998       1.975e-01         -0.2545
 101       1.506e+01      -2.564e+01       7.703e-01          -0.112          -0.106          -0.988       1.511e-01         -0.3293
 102       1.487e+01      -2.564e+01       8.070e-01          -0.297          -0.207          -0.932       9.962e-02         -0.3417
 103       1.477e+01      -2.564e+01       8.629e-01          -0.719          -0.433          -0.544       5.708e-02          0.3613
 104       1.477e+01      -2.564e+01       9.327e-01          -0.750          -0.413           0.516       6.304e-02          0.5022
 105       1.487e+01      -2.564e+01       1.007e+00          -0.432          -0.222           0.874       1.077e-01         -0.1781
 106       1.506e+01      -2.563e+01       1.075e+00          -0.255          -0.121           0.959       1.566e-01         -0.3969
 107       1.534e+01      -2.563e+01       1.129e+00          -0.139          -0.058           0.989       1.998e-01         -0.4677
 108       1.568e+01      -2.563e+01       1.160e+00          -0.048          -0.011           0.999       2.335e-01         -0.4604
 109       1.607e+01      -2.563e+01       1.164e+00           0.025           0.024           0.999       2.556e-01         -0.3931
 110       1.648e+01      -2.563e+01       1.143e+00           0.073           0.046           0.996       2.640e-01         -0.3026
 111       1.689e+01      -2.563e+01       1.106e+00           0.109           0.060           0.992       2.573e-01         -0.2184
 112       1.728e+01      -2.563e+01       1.058e+00           0.137           0.071           0.988       2.356e-01         -0.1398
 113       1.762e+01      -2.564e+01       1.008e+00           0.160           0.079           0.984       1.999e-01         -0.0607
 114       1.789e+01      -2.564e+01       9.607e-01           0.179           0.085           0.980       1.523e-01          0.0251
 115       1.808e+01      -2.564e+01       9.245e-01           0.193           0.089           0.977       9.538e-02          0.1098
 116       1.818e+01      -2.564e+01       9.026e-01           0.279           0.113           0.954       3.319e-02          0.1960
Strip 5
 117       1.798e+01      -2.492e+01       8.660e-01           0.158           0.010          -0.987       4.347e-02          0.1832
 118       1.787e+01      -2.492e+01       8.561e-01           0.071          -0.015          -0.997       1.265e-01          0.1421
 119       1.767e+01      -2.492e+01       8.418e-01           0.069          -0.016          -0.997       2.027e-01          0.0995
 120       1.738e+01      -2.492e+01       8.220e-01           0.067          -0.016          -0.998       2.670e-01          0.0530
 121       1.701e+01      -2.492e+01       7.983e-01           0.065          -0.017          -0.998       3.159e-01          0.0112
 122       1.660e+01      -2.492e+01       7.726e-01           0.061          -0.019          -0.998       3.463e-01         -0.0310
 123       1.617e+01      -2.492e+01       7.482e-01           0.051          -0.022          -0.998       3.565e-01         -0.0757
 124       1.573e+01      -2.492e+01       7.290e-01           0.036          -0.029          -0.999       3.459e-01         -0.1221
 125       1.532e+01      -2.493e+01       7.180e-01           0.017          -0.039          -0.999       3.153e-01         -0.1791
 126       1.496e+01      -2.493e+01       7.191e-01          -0.027          -0.061          -0.998       2.668e-01         -0.2501
 127       1.467e+01      -2.492e+01       7.377e-01          -0.112          -0.106          -0.988       2.042e-01         -0.3222
 128       1.447e+01      -2.492e+01       7.766e-01          -0.296          -0.207          -0.932       1.346e-01         -0.3293
 129       1.436e+01      -2.492e+01       8.358e-01          -0.719          -0.432          -0.544       7.714e-02          0.3731
 130       1.436e+01      -2.492e+01       9.099e-01          -0.750          -0.414           0.516       8.510e-02          0.5028
 131       1.447e+01      -2.492e+01       9.886e-01          -0.432          -0.222           0.874       1.454e-01         -0.1830
 132       1.467e+01      -2.492e+01       1.061e+00          -0.255          -0.121           0.959       2.114e-01         -0.4048
 133       1.496e+01      -2.491e+01       1.118e+00          -0.139          -0.058           0.989       2.698e-01         -0.4800
 134       1.532e+01      -2.491e+01       1.151e+00          -0.048          -0.011           0.999       3.154e-01         -0.4786
 135       1.573e+01      -2.491e+01       1.155e+00           0.025           0.024           0.999       3.453e-01         -0.4162
 136       1.617e+01      -2.491e+01       1.133e+00           0.073           0.046           0.996       3.566e-01         -0.3272
 137       1.660e+01      -2.491e+01       1.094e+00           0.109           0.060           0.992       3.475e-01         -0.2407
 138       1.701e+01      -2.492e+01       1.043e+00           0.137           0.071           0.988       3.182e-01         -0.1574
 139       1.738e+01      -2.492e+01       9.892e-01           0.160           0.079           0.984       2.701e-01         -0.0727
 140       1.767e+01      -2.492e+01       9.395e-01           0.179           0.085           0.980       2.058e-01          0.0182
 141       1.787e+01      -2.492e+01       9.012e-01           0.193           0.089           0.977       1.289e-01          0.1068
 142       1.798e+01      -2.492e+01       8.780e-01           0.279           0.113           0.954       4.485e-02          0.1945
Strip 6
 143       1.772e+01      -2.403e+01       8.347e-01           0.158           0.010          -0.987       5.621e-02          0.1823
 144       1.761e+01      -2.403e+01       8.241e-01           0.071          -0.015          -0.997       1.636e-01          0.1414
 145       1.739e+01      -2.403e+01       8.088e-01           0.069          -0.016          -0.997       2.621e-01          0.0994
 146       1.708e+01      -2.403e+01       7.876e-01           0.067          -0.016          -0.998       3.453e-01          0.0529
 147       1.669e+01      -2.403e+01       7.622e-01           0.065          -0.017          -0.998       4.085e-01          0.0110
 148       1.625e+01      -2.404e+01       7.347e-01           0.061          -0.019          -0.998       4.478e-01         -0.0312
 149       1.579e+01      -2.404e+01       7.086e-01           0.051          -0.022          -0.998       4.610e-01         -0.0755
 150       1.532e+01      -2.404e+01       6.880e-01           0.036          -0.029          -0.999       4.474e-01         -0.1209
 151       1.488e+01      -2.404e+01       6.762e-01           0.017          -0.039          -0.999       4.078e-01         -0.1767
 152       1.449e+01      -2.404e+01       6.774e-01          -0.027          -0.061          -0.998       3.450e-01         -0.2468
 153       1.418e+01      -2.404e+01       6.973e-01          -0.112          -0.106          -0.988       2.641e-01         -0.3179
 154       1.396e+01      -2.404e+01       7.390e-01          -0.296          -0.207          -0.932       1.742e-01         -0.3224
 155       1.385e+01      -2.403e+01       8.024e-01          -0.718          -0.432          -0.545       9.983e-02          0.3788
 156       1.385e+01      -2.403e+01       8.817e-01          -0.751          -0.414           0.515       1.100e-01          0.5021
 157       1.396e+01      -2.403e+01       9.659e-01          -0.432          -0.222           0.874       1.879e-01         -0.1871
 158       1.418e+01      -2.403e+01       1.044e+00          -0.255          -0.121           0.959       2.733e-01         -0.4101
 159       1.449e+01      -2.403e+01       1.104e+00          -0.139          -0.058           0.989       3.488e-01         -0.4866
 160       1.488e+01      -2.403e+01       1.140e+00          -0.048          -0.011           0.999       4.079e-01         -0.4874
 161       1.532e+01      -2.403e+01       1.144e+00           0.025           0.024           0.999       4.466e-01         -0.4271
 162       1.579e+01      -2.403e+01       1.121e+00           0.073           0.046           0.996       4.612e-01         -0.3393
 163       1.625e+01      -2.403e+01       1.078e+00           0.109           0.060           0.992       4.495e-01         -0.2528
 164       1.669e+01      -2.403e+01       1.024e+00           0.137           0.071           0.988       4.116e-01         -0.1680
 165       1.708e+01      -2.403e+01       9.666e-01           0.160           0.079           0.984       3.494e-01         -0.0810
 166       1.739e+01      -2.403e+01       9.134e-01           0.179           0.085           0.980       2.662e-01          0.0124
 167       1.761e+01      -2.403e+01       8.724e-01           0.193           0.089           0.977       1.667e-01          0.1031
 168       1.772e+01      -2.403e+01       8.475e-01           0.279           0.113           0.954       5.801e-02          0.1918
Strip 7
 169       1.742e+01      -2.298e+01       7.976e-01           0.158           0.010          -0.987       7.061e-02          0.1813
 170       1.730e+01      -2.298e+01       7.862e-01           0.071          -0.015          -0.997       2.056e-01          0.1407
 171       1.706e+01      -2.298e+01       7.697e-01           0.069          -0.016          -0.997       3.293e-01          0.0990
 172       1.673e+01      -2.298e+01       7.468e-01           0.067          -0.016          -0.998       4.338e-01          0.0529
 173       1.631e+01      -2.298e+01       7.194e-01           0.065          -0.017          -0.998       5.131e-01          0.0111
 174       1.584e+01      -2.298e+01       6.898e-01           0.061          -0.019          -0.998       5.625e-01         -0.0308
 175       1.533e+01      -2.298e+01       6.616e-01           0.051          -0.022          -0.998       5.791e-01         -0.0747
 176       1.483e+01      -2.298e+01       6.395e-01           0.036          -0.029          -0.999       5.620e-01         -0.1197
 177       1.436e+01      -2.298e+01       6.267e-01           0.017          -0.039          -0.999       5.123e-01         -0.1752
 178       1.394e+01      -2.298e+01       6.281e-01          -0.027          -0.061          -0.998       4.334e-01         -0.2453
 179       1.361e+01      -2.298e+01       6.495e-01          -0.112          -0.106          -0.988       3.318e-01         -0.3163
 180       1.337e+01      -2.298e+01       6.944e-01          -0.296          -0.207          -0.933       2.189e-01         -0.3200
 181       1.325e+01      -2.298e+01       7.628e-01          -0.718          -0.432          -0.546       1.255e-01          0.3801
 182       1.325e+01      -2.298e+01       8.483e-01          -0.751          -0.414           0.514       1.381e-01          0.5028
 183       1.337e+01      -2.298e+01       9.391e-01          -0.433          -0.222           0.874       2.359e-01         -0.1883
 184       1.361e+01      -2.298e+01       1.023e+00          -0.255          -0.121           0.959       3.432e-01         -0.4124
 185       1.394e+01      -2.297e+01       1.088e+00          -0.139          -0.058           0.989       4.382e-01         -0.4897
 186       1.436e+01      -2.297e+01       1.126e+00          -0.048          -0.011           0.999       5.124e-01         -0.4913
 187       1.483e+01      -2.297e+01       1.131e+00           0.025           0.024           0.999       5.611e-01         -0.4320
 188       1.533e+01      -2.297e+01       1.106e+00           0.073           0.046           0.996       5.794e-01         -0.3449
 189       1.584e+01      -2.297e+01       1.060e+00           0.109           0.060           0.992       5.647e-01         -0.2586
 190       1.631e+01      -2.298e+01       1.002e+00           0.137           0.071           0.988       5.172e-01         -0.1734
 191       1.673e+01      -2.298e+01       9.398e-01           0.160           0.079           0.984       4.390e-01         -0.0856
 192       1.706e+01      -2.298e+01       8.824e-01           0.179           0.085           0.980       3.344e-01          0.0088
 193       1.730e+01      -2.298e+01       8.382e-01           0.193           0.089           0.977       2.094e-01          0.1005
 194       1.742e+01      -2.298e+01       8.114e-01           0.278           0.113           0.954       7.289e-02          0.1897
Strip 8
 195       1.707e+01      -2.177e+01       7.549e-01           0.158           0.010          -0.987       8.680e-02          0.1807
 196       1.694e+01      -2.177e+01       7.426e-01           0.071          -0.015          -0.997       2.527e-01          0.1403
 197       1.669e+01      -2.177e+01       7.247e-01           0.069          -0.016          -0.997       4.048e-01          0.0988
 198       1.632e+01      -2.177e+01       7.000e-01           0.067          -0.016          -0.998       5.333e-01          0.0528
 199       1.587e+01      -2.177e+01       6.703e-01           0.065          -0.017          -0.998       6.308e-01          0.0112
 200       1.536e+01      -2.177e+01       6.382e-01           0.061          -0.019          -0.998       6.916e-01         -0.0305
 201       1.481e+01      -2.177e+01       6.077e-01           0.051          -0.022          -0.998       7.119e-01         -0.0743
 202       1.427e+01      -2.177e+01       5.837e-01           0.036          -0.029          -0.999       6.909e-01         -0.1193
 203       1.376e+01      -2.177e+01       5.699e-01           0.017          -0.039          -0.999       6.298e-01         -0.1748
 204       1.331e+01      -2.177e+01       5.713e-01          -0.027          -0.061          -0.998       5.329e-01         -0.2452
 205       1.294e+01      -2.177e+01       5.946e-01          -0.112          -0.106          -0.988       4.080e-01         -0.3168
 206       1.269e+01      -2.177e+01       6.432e-01          -0.296          -0.207          -0.933       2.692e-01         -0.3213
 207       1.256e+01      -2.177e+01       7.172e-01          -0.717          -0.432          -0.547       1.544e-01          0.3781
 208       1.256e+01      -2.177e+01       8.098e-01          -0.752          -0.414           0.513       1.697e-01          0.5053
 209       1.269e+01      -2.177e+01       9.082e-01          -0.433          -0.222           0.874       2.899e-01         -0.1866
 210       1.294e+01      -2.177e+01       9.989e-01          -0.255          -0.121           0.959       4.218e-01         -0.4120
 211       1.331e+01      -2.177e+01       1.070e+00          -0.139          -0.058           0.989       5.386e-01         -0.4902
 212       1.376e+01      -2.176e+01       1.111e+00          -0.048          -0.011           0.999       6.299e-01         -0.4925
 213       1.427e+01      -2.176e+01       1.116e+00           0.025           0.024           0.999       6.898e-01         -0.4338
 214       1.481e+01      -2.176e+01       1.089e+00           0.073           0.046           0.996       7.124e-01         -0.3472
 215       1.536e+01      -2.177e+01       1.039e+00           0.109           0.060           0.992       6.944e-01         -0.2611
 216       1.587e+01      -2.177e+01       9.763e-01           0.137           0.071           0.988       6.359e-01         -0.1759
 217       1.632e+01      -2.177e+01       9.090e-01           0.160           0.079           0.984       5.398e-01         -0.0878
 218       1.669e+01      -2.177e+01       8.469e-01           0.179           0.085           0.980       4.112e-01          0.0070
 219       1.694e+01      -2.177e+01       7.990e-01           0.193           0.089           0.977       2.575e-01          0.0991
 220       1.707e+01      -2.177e+01       7.700e-01           0.278           0.113           0.954       8.963e-02          0.1885
Strip 9
 221       1.668e+01      -2.041e+01       7.071e-01           0.158           0.010          -0.987       1.048e-01          0.1804
 222       1.654e+01      -2.041e+01       6.937e-01           0.071          -0.015          -0.997       3.052e-01          0.1400
 223       1.626e+01      -2.041e+01       6.742e-01           0.069          -0.016          -0.997       4.889e-01          0.0987
 224       1.587e+01      -2.041e+01       6.474e-01           0.067          -0.016          -0.998       6.442e-01          0.0528
 225       1.538e+01      -2.041e+01       6.151e-01           0.065          -0.017          -0.998       7.619e-01          0.0112
 226       1.482e+01      -2.042e+01       5.803e-01           0.061          -0.019          -0.998       8.354e-01         -0.0305
 227       1.423e+01      -2.042e+01       5.471e-01           0.051          -0.022          -0.998       8.600e-01         -0.0744
 228       1.364e+01      -2.042e+01       5.211e-01           0.036          -0.029          -0.999       8.345e-01         -0.1195
 229       1.308e+01      -2.042e+01       5.061e-01           0.017          -0.039          -0.999       7.608e-01         -0.1754
 230       1.259e+01      -2.042e+01       5.076e-01          -0.027          -0.061          -0.998       6.437e-01         -0.2464
 231       1.220e+01      -2.042e+01       5.329e-01          -0.112          -0.106          -0.988       4.930e-01         -0.3188
 232       1.192e+01      -2.042e+01       5.857e-01          -0.296          -0.207          -0.933       3.254e-01         -0.3254
 233       1.178e+01      -2.041e+01       6.661e-01          -0.717          -0.431          -0.548       1.866e-01          0.3735
 234       1.178e+01      -2.041e+01       7.667e-01          -0.752          -0.415           0.512       2.049e-01          0.5093
 235       1.192e+01      -2.041e+01       8.735e-01          -0.433          -0.222           0.873       3.500e-01         -0.1825
 236       1.220e+01      -2.041e+01       9.720e-01          -0.255          -0.121           0.959       5.094e-01         -0.4095
 237       1.259e+01      -2.041e+01       1.049e+00          -0.140          -0.058           0.989       6.505e-01         -0.4888
 238       1.308e+01      -2.041e+01       1.094e+00          -0.048          -0.011           0.999       7.609e-01         -0.4919
 239       1.364e+01      -2.041e+01       1.099e+00           0.025           0.024           0.999       8.333e-01         -0.4338
 240       1.423e+01      -2.041e+01       1.070e+00           0.073           0.046           0.996       8.607e-01         -0.3476
 241       1.482e+01      -2.041e+01       1.016e+00           0.109           0.060           0.992       8.389e-01         -0.2618
 242       1.538e+01      -2.041e+01       9.475e-01           0.137           0.071           0.988       7.683e-01         -0.1768
 243       1.587e+01      -2.041e+01       8.744e-01           0.160           0.079           0.984       6.521e-01         -0.0887
 244       1.626e+01      -2.041e+01       8.069e-01           0.179           0.085           0.980       4.968e-01          0.0061
 245       1.654e+01      -2.041e+01       7.549e-01           0.193           0.089           0.977       3.111e-01          0.0983
 246       1.668e+01      -2.041e+01       7.234e-01           0.278           0.113           0.954       1.083e-01          0.1878
Strip 10
 247       1.625e+01      -1.892e+01       6.543e-01           0.158           0.010          -0.987       1.247e-01          0.1802
 248       1.610e+01      -1.892e+01       6.397e-01           0.071          -0.015          -0.997       3.631e-01          0.1398
 249       1.580e+01      -1.892e+01       6.186e-01           0.069          -0.016          -0.997       5.817e-01          0.0986
 250       1.537e+01      -1.892e+01       5.893e-01           0.067          -0.016          -0.998       7.663e-01          0.0526
 251       1.484e+01      -1.892e+01       5.543e-01           0.065          -0.017          -0.998       9.065e-01          0.0110
 252       1.423e+01      -1.892e+01       5.164e-01           0.061          -0.019          -0.998       9.938e-01         -0.0308
 253       1.359e+01      -1.892e+01       4.803e-01           0.051          -0.022          -0.998       1.023e+00         -0.0749
 254       1.294e+01      -1.892e+01       4.520e-01           0.036          -0.029          -0.999       9.928e-01         -0.1203
 255       1.234e+01      -1.892e+01       4.357e-01           0.017          -0.039          -0.999       9.051e-01         -0.1766
 256       1.181e+01      -1.892e+01       4.374e-01          -0.027          -0.061          -0.998       7.659e-01         -0.2484
 257       1.138e+01      -1.892e+01       4.648e-01          -0.112          -0.106          -0.988       5.866e-01         -0.3222
 258       1.107e+01      -1.892e+01       5.223e-01          -0.296          -0.207          -0.933       3.872e-01         -0.3316
 259       1.092e+01      -1.892e+01       6.097e-01          -0.717          -0.431          -0.548       2.221e-01          0.3670
 260       1.092e+01      -1.891e+01       7.191e-01          -0.753          -0.415           0.511       2.436e-01          0.5146
 261       1.107e+01      -1.891e+01       8.353e-01          -0.433          -0.223           0.873       4.162e-01         -0.1763
 262       1.138e+01      -1.891e+01       9.424e-01          -0.256          -0.121           0.959       6.058e-01         -0.4056
 263       1.181e+01      -1.891e+01       1.026e+00          -0.140          -0.058           0.988       7.737e-01         -0.4861
 264       1.234e+01      -1.891e+01       1.075e+00          -0.048          -0.011           0.999       9.052e-01         -0.4900
 265       1.294e+01      -1.891e+01       1.081e+00           0.025           0.024           0.999       9.914e-01         -0.4327
 266       1.359e+01      -1.891e+01       1.049e+00           0.073           0.046           0.996       1.024e+00         -0.3470
 267       1.423e+01      -1.891e+01       9.904e-01           0.109           0.060           0.992       9.982e-01         -0.2616
 268       1.484e+01      -1.891e+01       9.158e-01           0.137           0.071           0.988       9.141e-01         -0.1768
 269       1.537e+01      -1.891e+01       8.362e-01           0.160           0.078           0.984       7.759e-01         -0.0889
 270       1.580e+01      -1.891e+01       7.628e-01           0.179           0.085           0.980       5.912e-01          0.0058
 271       1.610e+01      -1.892e+01       7.063e-01           0.193           0.089           0.977       3.702e-01          0.0980
 272       1.625e+01      -1.892e+01       6.720e-01           0.278           0.113           0.954       1.289e-01          0.1873
Strip 11
 273       1.579e+01      -1.729e+01       5.969e-01           0.158           0.010          -0.987       1.463e-01          0.1802
 274       1.562e+01      -1.729e+01       5.811e-01           0.071          -0.015          -0.997       4.261e-01          0.1397
 275       1.529e+01      -1.729e+01       5.581e-01           0.069          -0.016          -0.997       6.825e-01          0.0984
 276       1.482e+01      -1.729e+01       5.263e-01           0.067          -0.016          -0.998       8.992e-01          0.0524
 277       1.425e+01      -1.729e+01       4.882e-01           0.065          -0.017          -0.998       1.064e+00          0.0106
 278       1.359e+01      -1.729e+01       4.470e-01           0.061          -0.019          -0.998       1.166e+00         -0.0314
 279       1.289e+01      -1.729e+01       4.078e-01           0.051          -0.022          -0.998       1.200e+00         -0.0757
 280       1.219e+01      -1.729e+01       3.770e-01           0.036          -0.029          -0.999       1.165e+00         -0.1214
 281       1.153e+01      -1.729e+01       3.592e-01           0.017          -0.039          -0.999       1.062e+00         -0.1783
 282       1.095e+01      -1.729e+01       3.611e-01          -0.027          -0.061          -0.998       8.987e-01         -0.2509
 283       1.048e+01      -1.729e+01       3.909e-01          -0.112          -0.106          -0.988       6.884e-01         -0.3265
 284       1.016e+01      -1.729e+01       4.534e-01          -0.296          -0.206          -0.933       4.545e-01         -0.3395
 285       9.987e+00      -1.729e+01       5.485e-01          -0.716          -0.431          -0.549       2.608e-01          0.3590
 286       9.987e+00      -1.729e+01       6.674e-01          -0.753          -0.415           0.511       2.857e-01          0.5209
 287       1.016e+01      -1.729e+01       7.937e-01          -0.434          -0.223           0.873       4.881e-01         -0.1687
 288       1.048e+01      -1.729e+01       9.102e-01          -0.256          -0.121           0.959       7.107e-01         -0.4003
 289       1.095e+01      -1.728e+01       1.002e+00          -0.140          -0.058           0.988       9.077e-01         -0.4823
 290       1.153e+01      -1.728e+01       1.054e+00          -0.048          -0.011           0.999       1.062e+00         -0.4873
 291       1.219e+01      -1.728e+01       1.061e+00           0.025           0.024           0.999       1.163e+00         -0.4307
 292       1.289e+01      -1.728e+01       1.026e+00           0.073           0.046           0.996       1.202e+00         -0.3457
 293       1.359e+01      -1.728e+01       9.624e-01           0.109           0.060           0.992       1.171e+00         -0.2608
 294       1.425e+01      -1.729e+01       8.813e-01           0.137           0.071           0.988       1.073e+00         -0.1764
 295       1.482e+01      -1.729e+01       7.948e-01           0.160           0.078           0.984       9.106e-01         -0.0887
 296       1.529e+01      -1.729e+01       7.150e-01           0.179           0.085           0.980       6.938e-01          0.0058
 297       1.562e+01      -1.729e+01       6.534e-01           0.193           0.089           0.977       4.344e-01          0.0978
 298       1.579e+01      -1.729e+01       6.162e-01           0.278           0.113           0.954       1.512e-01          0.1871
Strip 12
 299       1.529e+01      -1.554e+01       5.354e-01           0.158           0.010          -0.987       1.695e-01          0.1801
 300       1.510e+01      -1.554e+01       5.182e-01           0.071          -0.015          -0.997       4.935e-01          0.1395
 301       1.475e+01      -1.554e+01       4.932e-01           0.069          -0.016          -0.997       7.905e-01          0.0981
 302       1.424e+01      -1.555e+01       4.587e-01           0.067          -0.016          -0.998       1.042e+00          0.0520
 303       1.361e+01      -1.555e+01       4.173e-01           0.065          -0.017          -0.998       1.232e+00          0.0101
 304       1.290e+01      -1.555e+01       3.725e-01           0.061          -0.019          -0.998       1.351e+00         -0.0322
 305       1.214e+01      -1.555e+01       3.299e-01           0.051          -0.022          -0.998       1.390e+00         -0.0768
 306       1.138e+01      -1.555e+01       2.965e-01           0.036          -0.029          -0.999       1.349e+00         -0.1229
 307       1.066e+01      -1.555e+01       2.772e-01           0.017          -0.039          -0.999       1.230e+00         -0.1803
 308       1.003e+01      -1.555e+01       2.792e-01          -0.027          -0.061          -0.998       1.041e+00         -0.2540
 309       9.526e+00      -1.555e+01       3.116e-01          -0.112          -0.106          -0.988       7.975e-01         -0.3314
 310       9.170e+00      -1.555e+01       3.795e-01          -0.296          -0.206          -0.933       5.267e-01         -0.3487
 311       8.987e+00      -1.554e+01       4.828e-01          -0.716          -0.431          -0.549       3.022e-01          0.3497
 312       8.987e+00      -1.554e+01       6.120e-01          -0.753          -0.415           0.510       3.308e-01          0.5279
 313       9.170e+00      -1.554e+01       7.492e-01          -0.434          -0.223           0.873       5.652e-01         -0.1596
 314       9.526e+00      -1.554e+01       8.757e-01          -0.256          -0.121           0.959       8.230e-01         -0.3939
 315       1.003e+01      -1.554e+01       9.749e-01          -0.140          -0.058           0.988       1.051e+00         -0.4776
 316       1.066e+01      -1.554e+01       1.032e+00          -0.048          -0.011           0.999       1.230e+00         -0.4839
 317       1.138e+01      -1.554e+01       1.039e+00           0.025           0.024           0.999       1.348e+00         -0.4283
 318       1.214e+01      -1.554e+01       1.002e+00           0.073           0.046           0.996       1.392e+00         -0.3440
 319       1.290e+01      -1.554e+01       9.324e-01           0.109           0.060           0.992       1.357e+00         -0.2596
 320       1.361e+01      -1.554e+01       8.443e-01           0.137           0.071           0.988       1.243e+00         -0.1756
 321       1.424e+01      -1.554e+01       7.503e-01           0.160           0.078           0.984       1.055e+00         -0.0883
 322       1.475e+01      -1.554e+01       6.636e-01           0.179           0.085           0.980       8.037e-01          0.0060
 323       1.510e+01      -1.554e+01       5.968e-01           0.193           0.089           0.977       5.033e-01          0.0978
 324       1.529e+01      -1.554e+01       5.563e-01           0.278           0.112           0.954       1.752e-01          0.1869
Strip 13
 325       1.476e+01      -1.369e+01       4.701e-01           0.158           0.010          -0.987       1.939e-01          0.1799
 326       1.456e+01      -1.369e+01       4.515e-01           0.071          -0.015          -0.997       5.648e-01          0.1393
 327       1.417e+01      -1.369e+01       4.244e-01           0.069          -0.016          -0.997       9.046e-01          0.0977
 328       1.362e+01      -1.369e+01       3.870e-01           0.067          -0.016          -0.998       1.192e+00          0.0515
 329       1.294e+01      -1.369e+01       3.421e-01           0.065          -0.017          -0.998       1.410e+00          0.0094
 330       1.217e+01      -1.369e+01       2.935e-01           0.061          -0.019          -0.998       1.546e+00         -0.0331
 331       1.134e+01      -1.370e+01       2.474e-01           0.051          -0.022          -0.998       1.591e+00         -0.0780
 332       1.052e+01      -1.370e+01       2.111e-01           0.036          -0.029          -0.999       1.544e+00         -0.1246
 333       9.743e+00      -1.370e+01       1.902e-01           0.017          -0.039          -0.999       1.408e+00         -0.1827
 334       9.060e+00      -1.370e+01       1.924e-01          -0.027          -0.061          -0.998       1.191e+00         -0.2574
 335       8.511e+00      -1.370e+01       2.275e-01          -0.112          -0.106          -0.988       9.127e-01         -0.3369
 336       8.125e+00      -1.369e+01       3.012e-01          -0.295          -0.206          -0.933       6.029e-01         -0.3591
 337       7.927e+00      -1.369e+01       4.131e-01          -0.716          -0.431          -0.550       3.460e-01          0.3393
 338       7.927e+00      -1.369e+01       5.532e-01          -0.754          -0.416           0.509       3.784e-01          0.5356
 339       8.125e+00      -1.369e+01       7.019e-01          -0.434          -0.223           0.873       6.465e-01         -0.1494
 340       8.511e+00      -1.369e+01       8.391e-01          -0.256          -0.121           0.959       9.416e-01         -0.3865
 341       9.060e+00      -1.369e+01       9.466e-01          -0.140          -0.058           0.988       1.203e+00         -0.4722
 342       9.743e+00      -1.369e+01       1.009e+00          -0.048          -0.011           0.999       1.408e+00         -0.4798
 343       1.052e+01      -1.369e+01       1.017e+00           0.025           0.024           0.999       1.542e+00         -0.4253
 344       1.134e+01      -1.369e+01       9.757e-01           0.073           0.046           0.996       1.593e+00         -0.3419
 345       1.217e+01      -1.369e+01       9.005e-01           0.109           0.060           0.992       1.553e+00         -0.2582
 346       1.294e+01      -1.369e+01       8.050e-01           0.137           0.071           0.988       1.422e+00         -0.1747
 347       1.362e+01      -1.369e+01       7.032e-01           0.160           0.078           0.984       1.207e+00         -0.0878
 348       1.417e+01      -1.369e+01       6.092e-01           0.179           0.085           0.980       9.198e-01          0.0062
 349       1.456e+01      -1.369e+01       5.367e-01           0.193           0.089           0.977       5.760e-01          0.0978
 350       1.476e+01      -1.369e+01       4.929e-01           0.278           0.112           0.954       2.005e-01          0.1867
Strip 14
 351       1.420e+01      -1.175e+01       4.016e-01           0.158           0.010          -0.987       2.193e-01          0.1797
 352       1.398e+01      -1.175e+01       3.814e-01           0.071          -0.015          -0.997       6.388e-01          0.1390
 353       1.357e+01      -1.175e+01       3.521e-01           0.069          -0.016          -0.997       1.023e+00          0.0972
 354       1.297e+01      -1.175e+01       3.117e-01           0.067          -0.016          -0.998       1.348e+00          0.0508
 355       1.223e+01      -1.175e+01       2.631e-01           0.065          -0.017          -0.998       1.594e+00          0.0085
 356       1.140e+01      -1.175e+01       2.106e-01           0.061          -0.019          -0.998       1.748e+00         -0.0342
 357       1.051e+01      -1.175e+01       1.607e-01           0.051          -0.022          -0.998       1.800e+00         -0.0794
 358       9.615e+00      -1.175e+01       1.215e-01           0.036          -0.029          -0.999       1.746e+00         -0.1264
 359       8.777e+00      -1.175e+01       9.884e-02           0.017          -0.039          -0.999       1.592e+00         -0.1852
 360       8.039e+00      -1.175e+01       1.012e-01          -0.027          -0.061          -0.998       1.348e+00         -0.2611
 361       7.444e+00      -1.175e+01       1.392e-01          -0.112          -0.106          -0.988       1.032e+00         -0.3429
 362       7.027e+00      -1.175e+01       2.188e-01          -0.295          -0.206          -0.933       6.821e-01         -0.3704
 363       6.812e+00      -1.175e+01       3.399e-01          -0.715          -0.431          -0.550       3.915e-01          0.3277
 364       6.812e+00      -1.175e+01       4.914e-01          -0.754          -0.416           0.509       4.278e-01          0.5438
 365       7.027e+00      -1.175e+01       6.523e-01          -0.434          -0.223           0.873       7.310e-01         -0.1378
 366       7.444e+00      -1.175e+01       8.006e-01          -0.256          -0.121           0.959       1.065e+00         -0.3781
 367       8.039e+00      -1.175e+01       9.170e-01          -0.140          -0.058           0.988       1.360e+00         -0.4659
 368       8.777e+00      -1.175e+01       9.841e-01          -0.048          -0.011           0.999       1.592e+00         -0.4751
 369       9.615e+00      -1.175e+01       9.926e-01           0.025           0.024           0.999       1.744e+00         -0.4218
 370       1.051e+01      -1.175e+01       9.484e-01           0.073           0.046           0.996       1.802e+00         -0.3395
 371       1.140e+01      -1.175e+01       8.671e-01           0.109           0.060           0.992       1.757e+00         -0.2566
 372       1.223e+01      -1.175e+01       7.638e-01           0.137           0.071           0.988       1.609e+00         -0.1736
 373       1.297e+01      -1.175e+01       6.536e-01           0.160           0.078           0.984       1.366e+00         -0.0872
 374       1.357e+01      -1.175e+01       5.520e-01           0.179           0.085           0.980       1.040e+00          0.0064
 375       1.398e+01      -1.175e+01       4.736e-01           0.193           0.089           0.977       6.515e-01          0.0977
 376       1.420e+01      -1.175e+01       4.261e-01           0.278           0.112           0.954       2.268e-01          0.1865
Strip 15
 377       1.362e+01      -9.724e+00       3.302e-01           0.158           0.010          -0.987       2.453e-01          0.1793
 378       1.339e+01      -9.724e+00       3.084e-01           0.071          -0.015          -0.997       7.143e-01          0.1385
 379       1.294e+01      -9.724e+00       2.768e-01           0.069          -0.016          -0.997       1.144e+00          0.0965
 380       1.230e+01      -9.725e+00       2.332e-01           0.067          -0.016          -0.998       1.507e+00          0.0499
 381       1.150e+01      -9.725e+00       1.808e-01           0.065          -0.017          -0.998       1.783e+00          0.0075
 382       1.060e+01      -9.725e+00       1.242e-01           0.061          -0.019          -0.998       1.955e+00         -0.0355
 383       9.635e+00      -9.725e+00       7.034e-02           0.051          -0.022          -0.998       2.012e+00         -0.0811
 384       8.675e+00      -9.726e+00       2.806e-02           0.036          -0.029          -0.999       1.953e+00         -0.1285
 385       7.771e+00      -9.726e+00       3.672e-03           0.017          -0.039          -0.999       1.781e+00         -0.1880
 386       6.974e+00      -9.726e+00       6.193e-03          -0.027          -0.061          -0.998       1.507e+00         -0.2649
 387       6.333e+00      -9.726e+00       4.718e-02          -0.112          -0.106          -0.988       1.155e+00         -0.3491
 388       5.883e+00      -9.725e+00       1.331e-01          -0.295          -0.206          -0.933       7.630e-01         -0.3825
 389       5.652e+00      -9.725e+00       2.636e-01          -0.715          -0.430          -0.551       4.380e-01          0.3148
 390       5.652e+00      -9.724e+00       4.270e-01          -0.754          -0.416           0.508       4.783e-01          0.5527
 391       5.883e+00      -9.723e+00       6.006e-01          -0.434          -0.223           0.873       8.172e-01         -0.1248
 392       6.333e+00      -9.722e+00       7.606e-01          -0.256          -0.121           0.959       1.190e+00         -0.3683
 393       6.974e+00      -9.721e+00       8.860e-01          -0.140          -0.058           0.988       1.521e+00         -0.4585
 394       7.771e+00      -9.721e+00       9.585e-01          -0.048          -0.011           0.999       1.781e+00         -0.4697
 395       8.675e+00      -9.721e+00       9.676e-01           0.025           0.024           0.999       1.951e+00         -0.4179
 396       9.635e+00      -9.721e+00       9.199e-01           0.073           0.046           0.996       2.015e+00         -0.3369
 397       1.060e+01      -9.722e+00       8.323e-01           0.109           0.060           0.992       1.965e+00         -0.2549
 398       1.150e+01      -9.722e+00       7.209e-01           0.137           0.071           0.988       1.799e+00         -0.1727
 399       1.230e+01      -9.723e+00       6.020e-01           0.160           0.078           0.984       1.527e+00         -0.0868
 400       1.294e+01      -9.723e+00       4.924e-01           0.179           0.084           0.980       1.164e+00          0.0064
 401       1.339e+01      -9.724e+00       4.079e-01           0.193           0.089           0.977       7.287e-01          0.0975
 402       1.362e+01      -9.724e+00       3.567e-01           0.278           0.112           0.954       2.537e-01          0.1860
Strip 16
 403       1.302e+01      -7.633e+00       2.565e-01           0.158           0.010          -0.987       2.713e-01          0.1786
 404       1.277e+01      -7.633e+00       2.330e-01           0.072          -0.015          -0.997       7.901e-01          0.1376
 405       1.229e+01      -7.633e+00       1.991e-01           0.069          -0.016          -0.997       1.266e+00          0.0955
 406       1.160e+01      -7.633e+00       1.522e-01           0.067          -0.016          -0.998       1.667e+00          0.0487
 407       1.074e+01      -7.634e+00       9.587e-02           0.065          -0.017          -0.998       1.972e+00          0.0060
 408       9.769e+00      -7.634e+00       3.495e-02           0.061          -0.019          -0.998       2.162e+00         -0.0372
 409       8.736e+00      -7.634e+00      -2.293e-02           0.051          -0.022          -0.998       2.226e+00         -0.0830
 410       7.704e+00      -7.634e+00      -6.840e-02           0.036          -0.029          -0.999       2.160e+00         -0.1307
 411       6.731e+00      -7.634e+00      -9.462e-02           0.017          -0.039          -0.999       1.970e+00         -0.1905
 412       5.876e+00      -7.634e+00      -9.191e-02          -0.027          -0.061          -0.998       1.667e+00         -0.2684
 413       5.186e+00      -7.634e+00      -4.784e-02          -0.112          -0.106          -0.988       1.277e+00         -0.3549
 414       4.702e+00      -7.634e+00       4.451e-02          -0.295          -0.206          -0.933       8.442e-01         -0.3949
 415       4.454e+00      -7.633e+00       1.849e-01          -0.715          -0.430          -0.551       4.846e-01          0.3008
 416       4.454e+00      -7.633e+00       3.606e-01          -0.754          -0.416           0.508       5.289e-01          0.5624
 417       4.702e+00      -7.632e+00       5.472e-01          -0.434          -0.223           0.873       9.037e-01         -0.1092
 418       5.186e+00      -7.631e+00       7.192e-01          -0.256          -0.121           0.959       1.317e+00         -0.3562
 419       5.876e+00      -7.631e+00       8.541e-01          -0.140          -0.058           0.988       1.683e+00         -0.4494
 420       6.731e+00      -7.631e+00       9.320e-01          -0.048          -0.011           0.999       1.969e+00         -0.4630
 421       7.704e+00      -7.631e+00       9.418e-01           0.025           0.024           0.999       2.158e+00         -0.4135
 422       8.736e+00      -7.631e+00       8.906e-01           0.073           0.046           0.996       2.229e+00         -0.3342
 423       9.769e+00      -7.631e+00       7.963e-01           0.109           0.060           0.992       2.173e+00         -0.2535
 424       1.074e+01      -7.632e+00       6.765e-01           0.137           0.071           0.988       1.990e+00         -0.1722
 425       1.160e+01      -7.632e+00       5.487e-01           0.160           0.078           0.984       1.690e+00         -0.0868
 426       1.229e+01      -7.632e+00       4.308e-01           0.179           0.084           0.980       1.287e+00          0.0060
 427       1.277e+01      -7.633e+00       3.400e-01           0.193           0.089           0.977       8.061e-01          0.0969
 428       1.302e+01      -7.633e+00       2.849e-01           0.278           0.112           0.954       2.807e-01          0.1853
Strip 17
 429       1.240e+01      -5.490e+00       1.809e-01           0.158           0.010          -0.987       2.969e-01          0.1773
 430       1.214e+01      -5.490e+00       1.558e-01           0.072          -0.015          -0.997       8.646e-01          0.1361
 431       1.162e+01      -5.490e+00       1.194e-01           0.069          -0.016          -0.997       1.385e+00          0.0936
 432       1.088e+01      -5.490e+00       6.913e-02           0.067          -0.016          -0.998       1.825e+00          0.0465
 433       9.964e+00      -5.490e+00       8.783e-03           0.065          -0.017          -0.998       2.158e+00          0.0035
 434       8.921e+00      -5.490e+00      -5.650e-02           0.061          -0.019          -0.998       2.366e+00         -0.0398
 435       7.815e+00      -5.490e+00      -1.185e-01           0.051          -0.022          -0.998       2.436e+00         -0.0855
 436       6.709e+00      -5.491e+00      -1.673e-01           0.036          -0.029          -0.999       2.364e+00         -0.1329
 437       5.666e+00      -5.491e+00      -1.954e-01           0.017          -0.039          -0.999       2.155e+00         -0.1925
 438       4.749e+00      -5.491e+00      -1.925e-01          -0.027          -0.061          -0.998       1.824e+00         -0.2705
 439       4.010e+00      -5.490e+00      -1.452e-01          -0.112          -0.106          -0.988       1.398e+00         -0.3588
 440       3.492e+00      -5.490e+00      -4.626e-02          -0.295          -0.206          -0.933       9.240e-01         -0.4056
 441       3.225e+00      -5.490e+00       1.042e-01          -0.715          -0.430          -0.552       5.305e-01          0.2863
 442       3.225e+00      -5.489e+00       2.925e-01          -0.754          -0.416           0.508       5.787e-01          0.5738
 443       3.492e+00      -5.489e+00       4.925e-01          -0.435          -0.223           0.873       9.887e-01         -0.0893
 444       4.010e+00      -5.489e+00       6.768e-01          -0.256          -0.122           0.959       1.441e+00         -0.3396
 445       4.749e+00      -5.488e+00       8.214e-01          -0.140          -0.058           0.988       1.841e+00         -0.4365
 446       5.666e+00      -5.488e+00       9.049e-01          -0.048          -0.011           0.999       2.155e+00         -0.4538
 447       6.709e+00      -5.488e+00       9.154e-01           0.025           0.024           0.999       2.362e+00         -0.4080
 448       7.815e+00      -5.488e+00       8.604e-01           0.073           0.046           0.996       2.440e+00         -0.3318
 449       8.921e+00      -5.488e+00       7.594e-01           0.109           0.060           0.992       2.379e+00         -0.2532
 450       9.964e+00      -5.489e+00       6.311e-01           0.137           0.071           0.988       2.178e+00         -0.1729
 451       1.088e+01      -5.489e+00       4.941e-01           0.160           0.078           0.984       1.849e+00         -0.0881
 452       1.162e+01      -5.489e+00       3.678e-01           0.179           0.084           0.980       1.409e+00          0.0046
 453       1.214e+01      -5.489e+00       2.704e-01           0.193           0.089           0.977       8.822e-01          0.0954
 454       1.240e+01      -5.490e+00       2.114e-01           0.278           0.112           0.954       3.072e-01          0.1838
Strip 18
 455       1.178e+01      -3.309e+00       1.040e-01           0.158           0.010          -0.987       3.215e-01          0.1747
 456       1.149e+01      -3.309e+00       7.719e-02           0.072          -0.015          -0.997       9.363e-01          0.1330
 457       1.094e+01      -3.309e+00       3.833e-02           0.069          -0.016          -0.997       1.500e+00          0.0899
 458       1.015e+01      -3.309e+00      -1.537e-02           0.067          -0.016          -0.998       1.976e+00          0.0420
 459       9.172e+00      -3.309e+00      -7.982e-02           0.065          -0.017          -0.998       2.337e+00         -0.0014
 460       8.059e+00      -3.309e+00      -1.495e-01           0.061          -0.019          -0.998       2.562e+00         -0.0445
 461       6.877e+00      -3.309e+00      -2.158e-01           0.051          -0.022          -0.998       2.638e+00         -0.0892
 462       5.696e+00      -3.309e+00      -2.678e-01           0.036          -0.029          -0.999       2.560e+00         -0.1346
 463       4.583e+00      -3.309e+00      -2.979e-01           0.017          -0.039          -0.999       2.334e+00         -0.1918
 464       3.603e+00      -3.309e+00      -2.948e-01          -0.027          -0.061          -0.998       1.976e+00         -0.2675
 465       2.814e+00      -3.309e+00      -2.443e-01          -0.112          -0.106          -0.988       1.514e+00         -0.3549
 466       2.260e+00      -3.309e+00      -1.386e-01          -0.295          -0.206          -0.933       1.001e+00         -0.4069
 467       1.976e+00      -3.309e+00       2.209e-02          -0.714          -0.430          -0.552       5.746e-01          0.2761
 468       1.976e+00      -3.309e+00       2.232e-01          -0.755          -0.416           0.507       6.265e-01          0.5906
 469       2.260e+00      -3.308e+00       4.368e-01          -0.435          -0.223           0.872       1.070e+00         -0.0586
 470       2.814e+00      -3.308e+00       6.337e-01          -0.256          -0.122           0.959       1.560e+00         -0.3119
 471       3.603e+00      -3.308e+00       7.881e-01          -0.140          -0.058           0.988       1.994e+00         -0.4141
 472       4.583e+00      -3.308e+00       8.773e-01          -0.048          -0.011           0.999       2.334e+00         -0.4384
 473       5.696e+00      -3.308e+00       8.885e-01           0.025           0.024           0.999       2.557e+00         -0.4002
 474       6.877e+00      -3.308e+00       8.298e-01           0.073           0.046           0.996       2.642e+00         -0.3305
 475       8.059e+00      -3.308e+00       7.219e-01           0.109           0.060           0.992       2.576e+00         -0.2560
 476       9.172e+00      -3.308e+00       5.848e-01           0.137           0.071           0.988       2.359e+00         -0.1777
 477       1.015e+01      -3.308e+00       4.386e-01           0.160           0.078           0.984       2.003e+00         -0.0930
 478       1.094e+01      -3.309e+00       3.036e-01           0.179           0.084           0.980       1.526e+00          0.0004
 479       1.149e+01      -3.309e+00       1.996e-01           0.193           0.089           0.977       9.554e-01          0.0920
 480       1.178e+01      -3.309e+00       1.366e-01           0.278           0.112           0.954       3.327e-01          0.1809
Strip 19
 481       1.115e+01      -1.105e+00       2.630e-02           0.158           0.010          -0.987       3.445e-01          0.1693
 482       1.084e+01      -1.105e+00      -2.226e-03           0.072          -0.015          -0.997       1.003e+00          0.1253
 483       1.026e+01      -1.106e+00      -4.359e-02           0.069          -0.016          -0.997       1.607e+00          0.0787
 484       9.415e+00      -1.106e+00      -1.007e-01           0.067          -0.016          -0.998       2.117e+00          0.0281
 485       8.373e+00      -1.106e+00      -1.693e-01           0.065          -0.017          -0.998       2.505e+00         -0.0154
 486       7.188e+00      -1.106e+00      -2.436e-01           0.061          -0.019          -0.998       2.746e+00         -0.0565
 487       5.930e+00      -1.106e+00      -3.141e-01           0.051          -0.022          -0.998       2.827e+00         -0.0972
 488       4.672e+00      -1.106e+00      -3.695e-01           0.036          -0.029          -0.999       2.743e+00         -0.1362
 489       3.488e+00      -1.106e+00      -4.014e-01           0.017          -0.039          -0.999       2.501e+00         -0.1828
 490       2.445e+00      -1.106e+00      -3.981e-01          -0.027          -0.061          -0.998       2.117e+00         -0.2416
 491       1.605e+00      -1.106e+00      -3.444e-01          -0.112          -0.106          -0.988       1.623e+00         -0.3080
 492       1.016e+00      -1.106e+00      -2.319e-01          -0.295          -0.206          -0.933       1.073e+00         -0.3494
 493       7.128e-01      -1.106e+00      -6.088e-02          -0.714          -0.430          -0.552       6.159e-01          0.2886
 494       7.128e-01      -1.105e+00       1.532e-01          -0.755          -0.416           0.507       6.713e-01          0.6124
 495       1.016e+00      -1.105e+00       3.805e-01          -0.435          -0.223           0.872       1.147e+00          0.0120
 496       1.605e+00      -1.105e+00       5.901e-01          -0.256          -0.122           0.959       1.671e+00         -0.2379
 497       2.445e+00      -1.105e+00       7.545e-01          -0.140          -0.058           0.988       2.136e+00         -0.3561
 498       3.488e+00      -1.105e+00       8.494e-01          -0.048          -0.011           0.999       2.501e+00         -0.4030
 499       4.672e+00      -1.105e+00       8.614e-01           0.025           0.024           0.999       2.741e+00         -0.3869
 500       5.930e+00      -1.105e+00       7.989e-01           0.073           0.046           0.996       2.832e+00         -0.3338
 501       7.188e+00      -1.105e+00       6.840e-01           0.109           0.060           0.992       2.760e+00         -0.2695
 502       8.373e+00      -1.105e+00       5.381e-01           0.137           0.071           0.988       2.528e+00         -0.1962
 503       9.415e+00      -1.105e+00       3.824e-01           0.160           0.078           0.984       2.146e+00         -0.1116
 504       1.026e+01      -1.105e+00       2.388e-01           0.179           0.084           0.980       1.635e+00         -0.0143
 505       1.084e+01      -1.105e+00       1.281e-01           0.193           0.089           0.977       1.024e+00          0.0825
 506       1.115e+01      -1.105e+00       6.102e-02           0.278           0.112           0.954       3.565e-01          0.1745
Strip 20
 507       1.115e+01       1.105e+00       2.630e-02           0.158          -0.010          -0.987       3.445e-01          0.1693
 508       1.084e+01       1.105e+00      -2.226e-03           0.072           0.015          -0.997       1.003e+00          0.1253
 509       1.026e+01       1.106e+00      -4.359e-02           0.069           0.016          -0.997       1.607e+00          0.0787
 510       9.415e+00       1.106e+00      -1.007e-01           0.067           0.016          -0.998       2.117e+00          0.0281
 511       8.373e+00       1.106e+00      -1.693e-01           0.065           0.017          -0.998       2.505e+00         -0.0154
 512       7.188e+00       1.106e+00      -2.436e-01           0.061           0.019          -0.998       2.746e+00         -0.0565
 513       5.930e+00       1.106e+00      -3.141e-01           0.051           0.022          -0.998       2.827e+00         -0.0972
 514       4.672e+00       1.106e+00      -3.695e-01           0.036           0.029          -0.999       2.743e+00         -0.1362
 515       3.488e+00       1.106e+00      -4.014e-01           0.017           0.039          -0.999       2.501e+00         -0.1828
 516       2.445e+00       1.106e+00      -3.981e-01          -0.027           0.061          -0.998       2.117e+00         -0.2416
 517       1.605e+00       1.106e+00      -3.444e-01          -0.112           0.106          -0.988       1.623e+00         -0.3080
 518       1.016e+00       1.106e+00      -2.319e-01          -0.295           0.206          -0.933       1.073e+00         -0.3494
 519       7.128e-01       1.106e+00      -6.088e-02          -0.714           0.430          -0.552       6.159e-01          0.2886
 520       7.128e-01       1.105e+00       1.532e-01          -0.755           0.416           0.507       6.713e-01          0.6124
 521       1.016e+00       1.105e+00       3.805e-01          -0.435           0.223           0.872       1.147e+00          0.0120
 522       1.605e+00       1.105e+00       5.901e-01          -0.256           0.122           0.959       1.671e+00         -0.2379
 523       2.445e+00       1.105e+00       7.545e-01          -0.140           0.058           0.988       2.136e+00         -0.3561
 524       3.488e+00       1.105e+00       8.494e-01          -0.048           0.011           0.999       2.501e+00         -0.4030
 525       4.672e+00       1.105e+00       8.614e-01           0.025          -0.024           0.999       2.741e+00         -0.3869
 526       5.930e+00       1.105e+00       7.989e-01           0.073          -0.046           0.996       2.832e+00         -0.3338
 527       7.188e+00       1.105e+00       6.840e-01           0.109          -0.060           0.992       2.760e+00         -0.2695
 528       8.373e+00       1.105e+00       5.381e-01           0.137          -0.071           0.988       2.528e+00         -0.1962
 529       9.415e+00       1.105e+00       3.824e-01           0.160          -0.078           0.984       2.146e+00         -0.1116
 530       1.026e+01       1.105e+00       2.388e-01           0.179          -0.084           0.980       1.635e+00         -0.0143
 531       1.084e+01       1.105e+00       1.281e-01           0.193          -0.089           0.977       1.024e+00          0.0825
 532       1.115e+01       1.105e+00       6.102e-02           0.278          -0.112           0.954       3.565e-01          0.1745
Strip 21
 533       1.178e+01       3.309e+00       1.040e-01           0.158          -0.010          -0.987       3.215e-01          0.1747
 534       1.149e+01       3.309e+00       7.719e-02           0.072           0.015          -0.997       9.363e-01          0.1330
 535       1.094e+01       3.309e+00       3.833e-02           0.069           0.016          -0.997       1.500e+00          0.0899
 536       1.015e+01       3.309e+00      -1.537e-02           0.067           0.016          -0.998       1.976e+00          0.0420
 537       9.172e+00       3.309e+00      -7.982e-02           0.065           0.017          -0.998       2.337e+00         -0.0014
 538       8.059e+00       3.309e+00      -1.495e-01           0.061           0.019          -0.998       2.562e+00         -0.0445
 539       6.877e+00       3.309e+00      -2.158e-01           0.051           0.022          -0.998       2.638e+00         -0.0892
 540       5.696e+00       3.309e+00      -2.678e-01           0.036           0.029          -0.999       2.560e+00         -0.1346
 541       4.583e+00       3.309e+00      -2.979e-01           0.017           0.039          -0.999       2.334e+00         -0.1918
 542       3.603e+00       3.309e+00      -2.948e-01          -0.027           0.061          -0.998       1.976e+00         -0.2675
 543       2.814e+00       3.309e+00      -2.443e-01          -0.112           0.106          -0.988       1.514e+00         -0.3549
 544       2.260e+00       3.309e+00      -1.386e-01          -0.295           0.206          -0.933       1.001e+00         -0.4069
 545       1.976e+00       3.309e+00       2.209e-02          -0.714           0.430          -0.552       5.746e-01          0.2761
 546       1.976e+00       3.309e+00       2.232e-01          -0.755           0.416           0.507       6.265e-01          0.5906
 547       2.260e+00       3.308e+00       4.368e-01          -0.435           0.223           0.872       1.070e+00         -0.0586
 548       2.814e+00       3.308e+00       6.337e-01          -0.256           0.122           0.959       1.560e+00         -0.3119
 549       3.603e+00       3.308e+00       7.881e-01          -0.140           0.058           0.988       1.994e+00         -0.4141
 550       4.583e+00       3.308e+00       8.773e-01          -0.048           0.011           0.999       2.334e+00         -0.4384
 551       5.696e+00       3.308e+00       8.885e-01           0.025          -0.024           0.999       2.557e+00         -0.4002
 552       6.877e+00       3.308e+00       8.298e-01           0.073          -0.046           0.996       2.642e+00         -0.3305
 553       8.059e+00       3.308e+00       7.219e-01           0.109          -0.060           0.992       2.576e+00         -0.2560
 554       9.172e+00       3.308e+00       5.848e-01           0.137          -0.071           0.988       2.359e+00         -0.1777
 555       1.015e+01       3.308e+00       4.386e-01           0.160          -0.078           0.984       2.003e+00         -0.0930
 556       1.094e+01       3.309e+00       3.036e-01           0.179          -0.084           0.980       1.526e+00          0.0004
 557       1.149e+01       3.309e+00       1.996e-01           0.193          -0.089           0.977       9.554e-01          0.0920
 558       1.178e+01       3.309e+00       1.366e-01           0.278          -0.112           0.954       3.327e-01          0.1809
Strip 22
 559       1.240e+01       5.490e+00       1.809e-01           0.158          -0.010          -0.987       2.969e-01          0.1773
 560       1.214e+01       5.490e+00       1.558e-01           0.072           0.015          -0.997       8.646e-01          0.1361
 561       1.162e+01       5.490e+00       1.194e-01           0.069           0.016          -0.997       1.385e+00          0.0936
 562       1.088e+01       5.490e+00       6.913e-02           0.067           0.016          -0.998       1.825e+00          0.0465
 563       9.964e+00       5.490e+00       8.783e-03           0.065           0.017          -0.998       2.158e+00          0.0035
 564       8.921e+00       5.490e+00      -5.650e-02           0.061           0.019          -0.998       2.366e+00         -0.0398
 565       7.815e+00       5.490e+00      -1.185e-01           0.051           0.022          -0.998       2.436e+00         -0.0855
 566       6.709e+00       5.491e+00      -1.673e-01           0.036           0.029          -0.999       2.364e+00         -0.1329
 567       5.666e+00       5.491e+00      -1.954e-01           0.017           0.039          -0.999       2.155e+00         -0.1925
 568       4.749e+00       5.491e+00      -1.925e-01          -0.027           0.061          -0.998       1.824e+00         -0.2705
[...]
 852       1.532e+01       2.404e+01       6.880e-01           0.036           0.029          -0.999       4.474e-01         -0.1209
 853       1.488e+01       2.404e+01       6.762e-01           0.017           0.039          -0.999       4.078e-01         -0.1767
 854       1.449e+01       2.404e+01       6.774e-01          -0.027           0.061          -0.998       3.450e-01         -0.2468
 855       1.418e+01       2.404e+01       6.973e-01          -0.112           0.106          -0.988       2.641e-01         -0.3179
 856       1.396e+01       2.404e+01       7.390e-01          -0.296           0.207          -0.932       1.742e-01         -0.3224
 857       1.385e+01       2.403e+01       8.024e-01          -0.718           0.432          -0.545       9.983e-02          0.3788
 858       1.385e+01       2.403e+01       8.817e-01          -0.751           0.414           0.515       1.100e-01          0.5021
 859       1.396e+01       2.403e+01       9.659e-01          -0.432           0.222           0.874       1.879e-01         -0.1871
 860       1.418e+01       2.403e+01       1.044e+00          -0.255           0.121           0.959       2.733e-01         -0.4101
 861       1.449e+01       2.403e+01       1.104e+00          -0.139           0.058           0.989       3.488e-01         -0.4866
 862       1.488e+01       2.403e+01       1.140e+00          -0.048           0.011           0.999       4.079e-01         -0.4874
 863       1.532e+01       2.403e+01       1.144e+00           0.025          -0.024           0.999       4.466e-01         -0.4271
 864       1.579e+01       2.403e+01       1.121e+00           0.073          -0.046           0.996       4.612e-01         -0.3393
 865       1.625e+01       2.403e+01       1.078e+00           0.109          -0.060           0.992       4.495e-01         -0.2528
 866       1.669e+01       2.403e+01       1.024e+00           0.137          -0.071           0.988       4.116e-01         -0.1680
 867       1.708e+01       2.403e+01       9.666e-01           0.160          -0.079           0.984       3.494e-01         -0.0810
 868       1.739e+01       2.403e+01       9.134e-01           0.179          -0.085           0.980       2.662e-01          0.0124
 869       1.761e+01       2.403e+01       8.724e-01           0.193          -0.089           0.977       1.667e-01          0.1031
 870       1.772e+01       2.403e+01       8.475e-01           0.279          -0.113           0.954       5.801e-02          0.1918
Strip 34
 871       1.798e+01       2.492e+01       8.660e-01           0.158          -0.010          -0.987       4.347e-02          0.1832
 872       1.787e+01       2.492e+01       8.561e-01           0.071           0.015          -0.997       1.265e-01          0.1421
 873       1.767e+01       2.492e+01       8.418e-01           0.069           0.016          -0.997       2.027e-01          0.0995
 874       1.738e+01       2.492e+01       8.220e-01           0.067           0.016          -0.998       2.670e-01          0.0530
 875       1.701e+01       2.492e+01       7.983e-01           0.065           0.017          -0.998       3.159e-01          0.0112
 876       1.660e+01       2.492e+01       7.726e-01           0.061           0.019          -0.998       3.463e-01         -0.0310
 877       1.617e+01       2.492e+01       7.482e-01           0.051           0.022          -0.998       3.565e-01         -0.0757
 878       1.573e+01       2.492e+01       7.290e-01           0.036           0.029          -0.999       3.459e-01         -0.1221
 879       1.532e+01       2.493e+01       7.180e-01           0.017           0.039          -0.999       3.153e-01         -0.1791
 880       1.496e+01       2.493e+01       7.191e-01          -0.027           0.061          -0.998       2.668e-01         -0.2501
 881       1.467e+01       2.492e+01       7.377e-01          -0.112           0.106          -0.988       2.042e-01         -0.3222
 882       1.447e+01       2.492e+01       7.766e-01          -0.296           0.207          -0.932       1.346e-01         -0.3293
 883       1.436e+01       2.492e+01       8.358e-01          -0.719           0.432          -0.544       7.714e-02          0.3731
 884       1.436e+01       2.492e+01       9.099e-01          -0.750           0.414           0.516       8.510e-02          0.5028
 885       1.447e+01       2.492e+01       9.886e-01          -0.432           0.222           0.874       1.454e-01         -0.1830
 886       1.467e+01       2.492e+01       1.061e+00          -0.255           0.121           0.959       2.114e-01         -0.4048
 887       1.496e+01       2.491e+01       1.118e+00          -0.139           0.058           0.989       2.698e-01         -0.4800
 888       1.532e+01       2.491e+01       1.151e+00          -0.048           0.011           0.999       3.154e-01         -0.4786
 889       1.573e+01       2.491e+01       1.155e+00           0.025          -0.024           0.999       3.453e-01         -0.4162
 890       1.617e+01       2.491e+01       1.133e+00           0.073          -0.046           0.996       3.566e-01         -0.3272
 891       1.660e+01       2.491e+01       1.094e+00           0.109          -0.060           0.992       3.475e-01         -0.2407
 892       1.701e+01       2.492e+01       1.043e+00           0.137          -0.071           0.988       3.182e-01         -0.1574
 893       1.738e+01       2.492e+01       9.892e-01           0.160          -0.079           0.984       2.701e-01         -0.0727
 894       1.767e+01       2.492e+01       9.395e-01           0.179          -0.085           0.980       2.058e-01          0.0182
 895       1.787e+01       2.492e+01       9.012e-01           0.193          -0.089           0.977       1.289e-01          0.1068
 896       1.798e+01       2.492e+01       8.780e-01           0.279          -0.113           0.954       4.485e-02          0.1945
Strip 35
 897       1.818e+01       2.564e+01       8.913e-01           0.158          -0.010          -0.987       3.219e-02          0.1824
 898       1.808e+01       2.564e+01       8.820e-01           0.071           0.015          -0.997       9.368e-02          0.1407
 899       1.789e+01       2.564e+01       8.685e-01           0.069           0.016          -0.997       1.501e-01          0.0976
 900       1.762e+01       2.564e+01       8.498e-01           0.067           0.016          -0.998       1.977e-01          0.0517
 901       1.728e+01       2.564e+01       8.274e-01           0.065           0.017          -0.998       2.339e-01          0.0114
 902       1.689e+01       2.564e+01       8.032e-01           0.061           0.019          -0.998       2.564e-01         -0.0291
 903       1.648e+01       2.564e+01       7.802e-01           0.051           0.022          -0.998       2.639e-01         -0.0732
 904       1.607e+01       2.564e+01       7.621e-01           0.036           0.029          -0.999       2.561e-01         -0.1206
 905       1.568e+01       2.564e+01       7.517e-01           0.017           0.039          -0.999       2.335e-01         -0.1804
 906       1.534e+01       2.564e+01       7.528e-01          -0.027           0.061          -0.998       1.975e-01         -0.2545
 907       1.506e+01       2.564e+01       7.703e-01          -0.112           0.106          -0.988       1.511e-01         -0.3293
 908       1.487e+01       2.564e+01       8.070e-01          -0.297           0.207          -0.932       9.962e-02         -0.3417
 909       1.477e+01       2.564e+01       8.629e-01          -0.719           0.433          -0.544       5.708e-02          0.3613
 910       1.477e+01       2.564e+01       9.327e-01          -0.750           0.413           0.516       6.304e-02          0.5022
 911       1.487e+01       2.564e+01       1.007e+00          -0.432           0.222           0.874       1.077e-01         -0.1781
 912       1.506e+01       2.563e+01       1.075e+00          -0.255           0.121           0.959       1.566e-01         -0.3969
 913       1.534e+01       2.563e+01       1.129e+00          -0.139           0.058           0.989       1.998e-01         -0.4677
 914       1.568e+01       2.563e+01       1.160e+00          -0.048           0.011           0.999       2.335e-01         -0.4604
 915       1.607e+01       2.563e+01       1.164e+00           0.025          -0.024           0.999       2.556e-01         -0.3931
 916       1.648e+01       2.563e+01       1.143e+00           0.073          -0.046           0.996       2.640e-01         -0.3026
 917       1.689e+01       2.563e+01       1.106e+00           0.109          -0.060           0.992       2.573e-01         -0.2184
 918       1.728e+01       2.563e+01       1.058e+00           0.137          -0.071           0.988       2.356e-01         -0.1398
 919       1.762e+01       2.564e+01       1.008e+00           0.160          -0.079           0.984       1.999e-01         -0.0607
 920       1.789e+01       2.564e+01       9.607e-01           0.179          -0.085           0.980       1.523e-01          0.0251
 921       1.808e+01       2.564e+01       9.245e-01           0.193          -0.089           0.977       9.538e-02          0.1098
 922       1.818e+01       2.564e+01       9.026e-01           0.279          -0.113           0.954       3.319e-02          0.1960
Strip 36
 923       1.834e+01       2.618e+01       9.104e-01           0.158          -0.010          -0.987       2.210e-02          0.1747
 924       1.824e+01       2.618e+01       9.016e-01           0.071           0.015          -0.997       6.431e-02          0.1322
 925       1.806e+01       2.618e+01       8.887e-01           0.069           0.016          -0.997       1.030e-01          0.0887
 926       1.780e+01       2.618e+01       8.709e-01           0.067           0.016          -0.998       1.357e-01          0.0453
 927       1.747e+01       2.618e+01       8.495e-01           0.065           0.017          -0.998       1.605e-01          0.0091
 928       1.710e+01       2.618e+01       8.264e-01           0.061           0.019          -0.998       1.760e-01         -0.0267
 929       1.671e+01       2.619e+01       8.044e-01           0.051           0.022          -0.998       1.812e-01         -0.0661
 930       1.632e+01       2.619e+01       7.872e-01           0.036           0.029          -0.999       1.758e-01         -0.1108
 931       1.595e+01       2.619e+01       7.772e-01           0.017           0.039          -0.999       1.603e-01         -0.1726
 932       1.562e+01       2.619e+01       7.782e-01          -0.027           0.061          -0.998       1.356e-01         -0.2545
 933       1.536e+01       2.619e+01       7.950e-01          -0.112           0.106          -0.988       1.037e-01         -0.3381
 934       1.518e+01       2.618e+01       8.300e-01          -0.297           0.207          -0.932       6.836e-02         -0.3612
 935       1.508e+01       2.618e+01       8.833e-01          -0.720           0.433          -0.543       3.916e-02          0.3390
 936       1.508e+01       2.618e+01       9.500e-01          -0.750           0.413           0.517       4.329e-02          0.4901
 937       1.518e+01       2.618e+01       1.021e+00          -0.432           0.222           0.874       7.396e-02         -0.1808
 938       1.536e+01       2.618e+01       1.086e+00          -0.255           0.121           0.959       1.075e-01         -0.3882
 939       1.562e+01       2.617e+01       1.137e+00          -0.139           0.058           0.989       1.371e-01         -0.4433
 940       1.595e+01       2.617e+01       1.167e+00          -0.048           0.011           0.999       1.603e-01         -0.4204
 941       1.632e+01       2.617e+01       1.171e+00           0.025          -0.024           0.999       1.755e-01         -0.3470
 942       1.671e+01       2.617e+01       1.151e+00           0.073          -0.046           0.996       1.812e-01         -0.2604
 943       1.710e+01       2.617e+01       1.115e+00           0.109          -0.060           0.992       1.766e-01         -0.1853
 944       1.747e+01       2.618e+01       1.070e+00           0.137          -0.071           0.988       1.617e-01         -0.1177
 945       1.780e+01       2.618e+01       1.021e+00           0.160          -0.079           0.984       1.372e-01         -0.0495
 946       1.806e+01       2.618e+01       9.766e-01           0.179          -0.085           0.980       1.045e-01          0.0272
 947       1.824e+01       2.618e+01       9.421e-01           0.193          -0.089           0.977       6.546e-02          0.1056
 948       1.834e+01       2.618e+01       9.213e-01           0.279          -0.113           0.954       2.278e-02          0.1897
Strip 37
 949       1.844e+01       2.655e+01       9.233e-01           0.158          -0.010          -0.987       1.289e-02          0.1452
 950       1.835e+01       2.655e+01       9.147e-01           0.071           0.015          -0.997       3.752e-02          0.1044
 951       1.817e+01       2.655e+01       9.022e-01           0.069           0.016          -0.997       6.010e-02          0.0651
 952       1.792e+01       2.655e+01       8.850e-01           0.067           0.016          -0.998       7.919e-02          0.0293
 953       1.760e+01       2.655e+01       8.643e-01           0.065           0.017          -0.998       9.367e-02          0.0005
 954       1.725e+01       2.655e+01       8.419e-01           0.061           0.019          -0.998       1.027e-01         -0.0281
 955       1.687e+01       2.655e+01       8.206e-01           0.051           0.022          -0.998       1.057e-01         -0.0592
 956       1.649e+01       2.655e+01       8.039e-01           0.036           0.029          -0.999       1.026e-01         -0.0938
 957       1.613e+01       2.655e+01       7.943e-01           0.017           0.039          -0.999       9.350e-02         -0.1458
 958       1.581e+01       2.655e+01       7.953e-01          -0.027           0.061          -0.998       7.908e-02         -0.2277
 959       1.556e+01       2.655e+01       8.115e-01          -0.112           0.106          -0.988       6.051e-02         -0.3316
 960       1.538e+01       2.655e+01       8.454e-01          -0.297           0.207          -0.932       3.987e-02         -0.3897
 961       1.529e+01       2.655e+01       8.970e-01          -0.720           0.433          -0.543       2.284e-02          0.2784
 962       1.529e+01       2.654e+01       9.615e-01          -0.749           0.413           0.518       2.526e-02          0.4180
 963       1.538e+01       2.654e+01       1.030e+00          -0.432           0.221           0.874       4.316e-02         -0.2171
 964       1.556e+01       2.654e+01       1.093e+00          -0.255           0.121           0.959       6.274e-02         -0.3721
 965       1.581e+01       2.654e+01       1.143e+00          -0.139           0.058           0.989       8.003e-02         -0.3832
 966       1.613e+01       2.654e+01       1.171e+00          -0.048           0.011           0.999       9.354e-02         -0.3440
 967       1.649e+01       2.654e+01       1.175e+00           0.025          -0.024           0.999       1.024e-01         -0.2780
 968       1.687e+01       2.654e+01       1.156e+00           0.073          -0.046           0.996       1.057e-01         -0.2081
 969       1.725e+01       2.654e+01       1.122e+00           0.109          -0.060           0.992       1.030e-01         -0.1511
 970       1.760e+01       2.654e+01       1.078e+00           0.137          -0.071           0.988       9.432e-02         -0.1018
 971       1.792e+01       2.654e+01       1.031e+00           0.160          -0.079           0.984       8.006e-02         -0.0529
 972       1.817e+01       2.654e+01       9.873e-01           0.179          -0.085           0.980       6.099e-02          0.0046
 973       1.835e+01       2.654e+01       9.540e-01           0.193          -0.089           0.977       3.819e-02          0.0687
 974       1.844e+01       2.655e+01       9.337e-01           0.279          -0.113           0.954       1.329e-02          0.1496
Strip 38
 975       1.849e+01       2.673e+01       9.297e-01           0.158          -0.010          -0.987       4.236e-03          0.0764
 976       1.840e+01       2.673e+01       9.213e-01           0.071           0.015          -0.997       1.233e-02          0.0446
 977       1.823e+01       2.673e+01       9.090e-01           0.069           0.016          -0.997       1.975e-02          0.0208
 978       1.798e+01       2.673e+01       8.920e-01           0.067           0.016          -0.998       2.602e-02          0.0002
 979       1.767e+01       2.673e+01       8.717e-01           0.065           0.017          -0.998       3.077e-02         -0.0175
 980       1.732e+01       2.673e+01       8.497e-01           0.061           0.019          -0.998       3.374e-02         -0.0358
 981       1.695e+01       2.673e+01       8.288e-01           0.051           0.022          -0.998       3.473e-02         -0.0566
 982       1.657e+01       2.673e+01       8.124e-01           0.036           0.029          -0.999       3.370e-02         -0.0801
 983       1.622e+01       2.673e+01       8.029e-01           0.017           0.039          -0.999       3.072e-02         -0.1154
 984       1.591e+01       2.673e+01       8.039e-01          -0.027           0.061          -0.998       2.598e-02         -0.1736
 985       1.566e+01       2.673e+01       8.198e-01          -0.112           0.106          -0.988       1.988e-02         -0.2622
 986       1.549e+01       2.673e+01       8.532e-01          -0.297           0.207          -0.932       1.310e-02         -0.3488
 987       1.540e+01       2.673e+01       9.039e-01          -0.720           0.433          -0.542       7.503e-03          0.2462
 988       1.540e+01       2.673e+01       9.673e-01          -0.749           0.413           0.518       8.302e-03          0.3376
 989       1.549e+01       2.672e+01       1.035e+00          -0.431           0.221           0.875       1.418e-02         -0.2326
 990       1.566e+01       2.672e+01       1.097e+00          -0.255           0.121           0.959       2.061e-02         -0.3080
 991       1.591e+01       2.672e+01       1.146e+00          -0.139           0.058           0.989       2.629e-02         -0.2949
 992       1.622e+01       2.672e+01       1.174e+00          -0.048           0.011           0.999       3.073e-02         -0.2622
 993       1.657e+01       2.672e+01       1.177e+00           0.025          -0.024           0.999       3.364e-02         -0.2140
 994       1.695e+01       2.672e+01       1.159e+00           0.073          -0.046           0.996       3.473e-02         -0.1628
 995       1.732e+01       2.672e+01       1.125e+00           0.109          -0.060           0.992       3.384e-02         -0.1200
 996       1.767e+01       2.672e+01       1.081e+00           0.137          -0.071           0.988       3.099e-02         -0.0818
 997       1.798e+01       2.672e+01       1.035e+00           0.160          -0.079           0.984       2.630e-02         -0.0450
 998       1.823e+01       2.673e+01       9.927e-01           0.179          -0.085           0.980       2.004e-02         -0.0071
 999       1.840e+01       2.673e+01       9.599e-01           0.193          -0.089           0.977       1.255e-02          0.0262
1000       1.849e+01       2.673e+01       9.400e-01           0.279          -0.113           0.954       4.366e-03          0.0904










